<?xml version="1.0" encoding="UTF-8"?>

<!-- generated on 2025-09-14 22:08:22 by Eclipse SUMO netedit Version 1.23.1
<neteditConfiguration xmlns:xsi="http://www.w3.org/2001/XMLSchema-instance" xsi:noNamespaceSchemaLocation="http://sumo.dlr.de/xsd/neteditConfiguration.xsd">

    <input>
        <sumo-net-file value="D:\TricycleABM\CLEANED FINAL MAP.net.xml"/>
    </input>

    <output>
        <output-file value="D:\TricycleABM\CLEANED FINAL MAP.net.xml"/>
    </output>

    <processing>
        <geometry.min-radius.fix.railways value="false"/>
        <geometry.avoid-overlap value="false"/>
        <geometry.max-grade.fix value="false"/>
        <offset.disable-normalization value="true"/>
        <lefthand value="0"/>
    </processing>

    <junctions>
        <no-turnarounds value="true"/>
        <junctions.corner-detail value="5"/>
        <junctions.limit-turn-speed value="5.50"/>
        <rectangular-lane-cut value="0"/>
    </junctions>

    <pedestrian>
        <walkingareas value="0"/>
    </pedestrian>

</neteditConfiguration>
-->

<net version="1.20" junctionCornerDetail="5" limitTurnSpeed="5.50" avoidOverlap="0" xmlns:xsi="http://www.w3.org/2001/XMLSchema-instance" xsi:noNamespaceSchemaLocation="http://sumo.dlr.de/xsd/net_file.xsd">

    <location netOffset="0.00,0.00" convBoundary="282069.61,1608213.57,284570.94,1613232.67" origBoundary="120.974688,14.538380,121.000730,14.654649" projParameter="+proj=utm +zone=51 +ellps=WGS84 +datum=WGS84 +units=m +no_defs"/>

    <type id="highway.footway" priority="1" numLanes="1" speed="2.78" allow="pedestrian" oneway="1" width="2.00"/>
    <type id="highway.primary" priority="12" numLanes="2" speed="27.78" disallow="tram rail_urban rail rail_electric rail_fast ship container cable_car subway aircraft wheelchair scooter drone" oneway="0"/>
    <type id="highway.primary_link" priority="7" numLanes="1" speed="22.22" disallow="tram rail_urban rail rail_electric rail_fast ship container cable_car subway aircraft wheelchair scooter drone" oneway="0"/>
    <type id="highway.residential" priority="3" numLanes="1" speed="13.89" disallow="tram rail_urban rail rail_electric rail_fast ship container cable_car subway aircraft wheelchair scooter drone" oneway="0"/>
    <type id="highway.secondary" priority="11" numLanes="1" speed="27.78" disallow="tram rail_urban rail rail_electric rail_fast ship container cable_car subway aircraft wheelchair scooter drone" oneway="0"/>
    <type id="highway.secondary_link" priority="6" numLanes="1" speed="22.22" disallow="tram rail_urban rail rail_electric rail_fast ship container cable_car subway aircraft wheelchair scooter drone" oneway="0"/>
    <type id="highway.tertiary" priority="10" numLanes="1" speed="22.22" disallow="tram rail_urban rail rail_electric rail_fast ship container cable_car subway aircraft wheelchair scooter drone" oneway="0"/>
    <type id="highway.trunk" priority="13" numLanes="2" speed="27.78" disallow="pedestrian bicycle tram rail_urban rail rail_electric rail_fast ship container cable_car subway aircraft wheelchair scooter drone" oneway="0"/>
    <type id="highway.unclassified" priority="4" numLanes="1" speed="13.89" disallow="tram rail_urban rail rail_electric rail_fast ship container cable_car subway aircraft wheelchair scooter drone" oneway="0"/>

    <edge id=":1020278300_0" function="internal">
        <lane id=":1020278300_0_0" index="0" disallow="tram rail_urban rail rail_electric rail_fast ship container cable_car subway aircraft wheelchair scooter drone" speed="6.35" length="8.95" shape="282267.24,1612780.74 282264.92,1612779.85 282262.90,1612779.93 282261.21,1612780.98 282259.82,1612783.00"/>
    </edge>
    <edge id=":1020278300_1" function="internal">
        <lane id=":1020278300_1_0" index="0" disallow="tram rail_urban rail rail_electric rail_fast ship container cable_car subway aircraft wheelchair scooter drone" speed="11.11" length="15.02" width="3.00" shape="282267.24,1612780.74 282254.11,1612773.45"/>
        <lane id=":1020278300_1_1" index="1" disallow="tram rail_urban rail rail_electric rail_fast ship container cable_car subway aircraft wheelchair scooter drone" speed="11.11" length="15.02" width="3.00" shape="282268.70,1612778.12 282255.56,1612770.82"/>
    </edge>
    <edge id=":1020278300_3" function="internal">
        <lane id=":1020278300_3_0" index="0" disallow="tram rail_urban rail rail_electric rail_fast ship container cable_car subway aircraft wheelchair scooter drone" speed="6.85" length="9.72" width="3.00" shape="282268.77,1612764.73 282268.00,1612767.17 282268.22,1612769.34 282269.42,1612771.24 282271.61,1612772.87"/>
    </edge>
    <edge id=":1020278300_4" function="internal">
        <lane id=":1020278300_4_0" index="0" disallow="tram rail_urban rail rail_electric rail_fast ship container cable_car subway aircraft wheelchair scooter drone" speed="13.89" length="20.34" shape="282268.77,1612764.73 282259.82,1612783.00"/>
        <lane id=":1020278300_4_1" index="1" disallow="tram rail_urban rail rail_electric rail_fast ship container cable_car subway aircraft wheelchair scooter drone" speed="13.89" length="20.34" shape="282265.90,1612763.32 282256.95,1612781.59"/>
    </edge>
    <edge id=":1020278300_6" function="internal">
        <lane id=":1020278300_6_0" index="0" disallow="tram rail_urban rail rail_electric rail_fast ship container cable_car subway aircraft wheelchair scooter drone" speed="7.88" length="14.28" width="3.00" shape="282265.90,1612763.32 282263.34,1612767.69 282260.76,1612770.40 282258.17,1612771.44 282255.56,1612770.82"/>
    </edge>
    <edge id=":1020278300_7" function="internal">
        <lane id=":1020278300_7_0" index="0" disallow="tram rail_urban rail rail_electric rail_fast ship container cable_car subway aircraft wheelchair scooter drone" speed="11.11" length="15.02" width="3.00" shape="282258.48,1612765.58 282271.61,1612772.87"/>
        <lane id=":1020278300_7_1" index="1" disallow="tram rail_urban rail rail_electric rail_fast ship container cable_car subway aircraft wheelchair scooter drone" speed="11.11" length="15.02" width="3.00" shape="282257.02,1612768.20 282270.15,1612775.49"/>
    </edge>
    <edge id=":1020278300_9" function="internal">
        <lane id=":1020278300_9_0" index="0" disallow="tram rail_urban rail rail_electric rail_fast ship container cable_car subway aircraft wheelchair scooter drone" speed="8.27" length="2.33" shape="282257.02,1612768.20 282258.67,1612769.84"/>
    </edge>
    <edge id=":1020278300_10" function="internal">
        <lane id=":1020278300_10_0" index="0" disallow="tram rail_urban rail rail_electric rail_fast ship container cable_car subway aircraft wheelchair scooter drone" speed="8.27" length="12.36" shape="282258.67,1612769.84 282258.93,1612770.10 282259.55,1612772.96 282258.89,1612776.79 282256.95,1612781.59"/>
    </edge>
    <edge id=":1020278319_0" function="internal">
        <lane id=":1020278319_0_0" index="0" disallow="tram rail_urban rail rail_electric rail_fast ship container cable_car subway aircraft wheelchair scooter drone" speed="6.60" length="8.98" shape="282217.57,1612869.18 282216.77,1612871.56 282216.88,1612873.62 282217.88,1612875.38 282219.77,1612876.82"/>
        <lane id=":1020278319_0_1" index="1" disallow="tram rail_urban rail rail_electric rail_fast ship container cable_car subway aircraft wheelchair scooter drone" speed="8.08" length="13.96" shape="282214.70,1612867.77 282213.48,1612871.44 282213.66,1612874.64 282215.25,1612877.37 282218.23,1612879.62"/>
    </edge>
    <edge id=":1020278319_2" function="internal">
        <lane id=":1020278319_2_0" index="0" disallow="tram rail_urban rail rail_electric rail_fast ship container cable_car subway aircraft wheelchair scooter drone" speed="11.11" length="14.04" shape="282207.46,1612870.06 282219.77,1612876.82"/>
        <lane id=":1020278319_2_1" index="1" disallow="tram rail_urban rail rail_electric rail_fast ship container cable_car subway aircraft wheelchair scooter drone" speed="11.11" length="14.04" shape="282205.92,1612872.86 282218.23,1612879.62"/>
        <lane id=":1020278319_2_2" index="2" disallow="tram rail_urban rail rail_electric rail_fast ship container cable_car subway aircraft wheelchair scooter drone" speed="11.11" length="14.04" shape="282204.38,1612875.67 282216.69,1612882.43"/>
    </edge>
    <edge id=":1020278448_0" function="internal">
        <lane id=":1020278448_0_0" index="0" disallow="tram rail_urban rail rail_electric rail_fast ship container cable_car subway aircraft wheelchair scooter drone" speed="6.05" length="7.48" shape="282122.63,1612819.25 282122.19,1612820.86 282122.55,1612822.38 282123.73,1612823.82 282125.71,1612825.17"/>
    </edge>
    <edge id=":1020278448_1" function="internal">
        <lane id=":1020278448_1_0" index="0" disallow="tram rail_urban rail rail_electric rail_fast ship container cable_car subway aircraft wheelchair scooter drone" speed="6.29" length="7.62" shape="282113.06,1612819.34 282115.35,1612819.94 282117.23,1612819.88 282118.71,1612819.17 282119.78,1612817.80"/>
    </edge>
    <edge id=":1020278448_2" function="internal">
        <lane id=":1020278448_2_0" index="0" disallow="tram rail_urban rail rail_electric rail_fast ship container cable_car subway aircraft wheelchair scooter drone" speed="11.11" length="13.48" shape="282113.06,1612819.34 282116.93,1612820.81 282119.54,1612821.91 282122.07,1612823.19 282125.71,1612825.17"/>
        <lane id=":1020278448_2_1" index="1" disallow="tram rail_urban rail rail_electric rail_fast ship container cable_car subway aircraft wheelchair scooter drone" speed="11.11" length="13.48" shape="282111.94,1612822.34 282115.68,1612823.76 282118.21,1612824.82 282120.65,1612826.06 282124.17,1612827.97"/>
        <lane id=":1020278448_2_2" index="2" disallow="tram rail_urban rail rail_electric rail_fast ship container cable_car subway aircraft wheelchair scooter drone" speed="11.11" length="13.48" shape="282110.82,1612825.34 282114.44,1612826.71 282116.87,1612827.74 282119.24,1612828.93 282122.63,1612830.78"/>
    </edge>
    <edge id=":1020278495_0" function="internal">
        <lane id=":1020278495_0_0" index="0" disallow="tram rail_urban rail rail_electric rail_fast ship container cable_car subway aircraft wheelchair scooter drone" speed="6.46" length="8.99" shape="282177.73,1612731.02 282175.40,1612730.12 282173.36,1612730.16 282171.60,1612731.15 282170.13,1612733.09"/>
    </edge>
    <edge id=":1020278495_1" function="internal">
        <lane id=":1020278495_1_0" index="0" disallow="tram rail_urban rail rail_electric rail_fast ship container cable_car subway aircraft wheelchair scooter drone" speed="11.11" length="16.89" width="3.00" shape="282177.73,1612731.02 282162.96,1612722.83"/>
        <lane id=":1020278495_1_1" index="1" disallow="tram rail_urban rail rail_electric rail_fast ship container cable_car subway aircraft wheelchair scooter drone" speed="11.11" length="16.89" width="3.00" shape="282179.19,1612728.40 282164.41,1612720.21"/>
    </edge>
    <edge id=":1020278495_3" function="internal">
        <lane id=":1020278495_3_0" index="0" disallow="tram rail_urban rail rail_electric rail_fast ship container cable_car subway aircraft wheelchair scooter drone" speed="8.33" length="3.34" shape="282179.19,1612728.40 282176.62,1612726.27"/>
    </edge>
    <edge id=":1020278495_12" function="internal">
        <lane id=":1020278495_12_0" index="0" disallow="tram rail_urban rail rail_electric rail_fast ship container cable_car subway aircraft wheelchair scooter drone" speed="8.33" length="13.15" shape="282176.62,1612726.27 282176.15,1612725.88 282174.79,1612722.65 282175.13,1612718.70 282177.16,1612714.04"/>
    </edge>
    <edge id=":1020278495_4" function="internal">
        <lane id=":1020278495_4_0" index="0" disallow="tram rail_urban rail rail_electric rail_fast ship container cable_car subway aircraft wheelchair scooter drone" speed="6.45" length="8.95" width="3.00" shape="282179.93,1612715.63 282179.04,1612717.90 282179.11,1612719.91 282180.13,1612721.66 282182.10,1612723.15"/>
    </edge>
    <edge id=":1020278495_5" function="internal">
        <lane id=":1020278495_5_0" index="0" disallow="tram rail_urban rail rail_electric rail_fast ship container cable_car subway aircraft wheelchair scooter drone" speed="5.56" length="20.03" shape="282179.93,1612715.63 282170.13,1612733.09"/>
    </edge>
    <edge id=":1020278495_6" function="internal">
        <lane id=":1020278495_6_0" index="0" disallow="tram rail_urban rail rail_electric rail_fast ship container cable_car subway aircraft wheelchair scooter drone" speed="11.11" length="16.90" width="3.00" shape="282167.32,1612714.96 282182.10,1612723.15"/>
        <lane id=":1020278495_6_1" index="1" disallow="tram rail_urban rail rail_electric rail_fast ship container cable_car subway aircraft wheelchair scooter drone" speed="11.11" length="16.90" width="3.00" shape="282165.87,1612717.58 282180.65,1612725.77"/>
    </edge>
    <edge id=":1020278495_8" function="internal">
        <lane id=":1020278495_8_0" index="0" disallow="tram rail_urban rail rail_electric rail_fast ship container cable_car subway aircraft wheelchair scooter drone" speed="7.12" length="11.00" width="3.00" shape="282167.33,1612731.55 282168.05,1612729.19 282167.57,1612726.95 282165.87,1612724.83 282162.96,1612722.83"/>
    </edge>
    <edge id=":1020278495_9" function="internal">
        <lane id=":1020278495_9_0" index="0" disallow="tram rail_urban rail rail_electric rail_fast ship container cable_car subway aircraft wheelchair scooter drone" speed="5.56" length="20.24" shape="282167.33,1612731.55 282168.75,1612727.94 282169.90,1612723.61 282171.52,1612718.48 282174.38,1612712.45"/>
        <lane id=":1020278495_9_1" index="1" disallow="tram rail_urban rail rail_electric rail_fast ship container cable_car subway aircraft wheelchair scooter drone" speed="5.56" length="20.24" shape="282167.33,1612731.55 282177.16,1612714.04"/>
    </edge>
    <edge id=":1020278495_11" function="internal">
        <lane id=":1020278495_11_0" index="0" disallow="tram rail_urban rail rail_electric rail_fast ship container cable_car subway aircraft wheelchair scooter drone" speed="8.33" length="5.42" width="3.00" shape="282167.33,1612731.55 282170.24,1612727.40 282170.53,1612727.20"/>
    </edge>
    <edge id=":1020278495_13" function="internal">
        <lane id=":1020278495_13_0" index="0" disallow="tram rail_urban rail rail_electric rail_fast ship container cable_car subway aircraft wheelchair scooter drone" speed="8.33" length="11.07" width="3.00" shape="282170.53,1612727.20 282173.44,1612725.06 282176.90,1612724.52 282180.65,1612725.77"/>
    </edge>
    <edge id=":1020278518_0" function="internal">
        <lane id=":1020278518_0_0" index="0" disallow="tram rail_urban rail rail_electric rail_fast ship container cable_car subway aircraft wheelchair scooter drone" speed="6.82" length="9.52" shape="282221.63,1612654.05 282219.23,1612653.29 282217.10,1612653.49 282215.22,1612654.65 282213.61,1612656.76"/>
    </edge>
    <edge id=":1020278518_1" function="internal">
        <lane id=":1020278518_1_0" index="0" disallow="tram rail_urban rail rail_electric rail_fast ship container cable_car subway aircraft wheelchair scooter drone" speed="13.89" length="17.70" shape="282221.63,1612654.05 282205.84,1612646.05"/>
    </edge>
    <edge id=":1020278518_2" function="internal">
        <lane id=":1020278518_2_0" index="0" disallow="tram rail_urban rail rail_electric rail_fast ship container cable_car subway aircraft wheelchair scooter drone" speed="7.28" length="11.76" shape="282221.63,1612654.05 282218.32,1612652.04 282216.33,1612649.88 282215.65,1612647.57 282216.29,1612645.11"/>
    </edge>
    <edge id=":1020278518_3" function="internal">
        <lane id=":1020278518_3_0" index="0" disallow="tram rail_urban rail rail_electric rail_fast ship container cable_car subway aircraft wheelchair scooter drone" speed="5.56" length="11.60" shape="282219.14,1612646.57 282213.61,1612656.76"/>
    </edge>
    <edge id=":1020278518_4" function="internal">
        <lane id=":1020278518_4_0" index="0" disallow="tram rail_urban rail rail_electric rail_fast ship container cable_car subway aircraft wheelchair scooter drone" speed="8.11" length="14.66" shape="282219.14,1612646.57 282217.34,1612648.43 282214.52,1612648.96 282210.69,1612648.17 282205.84,1612646.05"/>
    </edge>
    <edge id=":1020278518_5" function="internal">
        <lane id=":1020278518_5_0" index="0" disallow="tram rail_urban rail rail_electric rail_fast ship container cable_car subway aircraft wheelchair scooter drone" speed="6.42" length="9.04" shape="282208.05,1612653.58 282208.97,1612651.27 282208.91,1612649.24 282207.86,1612647.50 282205.84,1612646.05"/>
    </edge>
    <edge id=":1020278518_6" function="internal">
        <lane id=":1020278518_6_0" index="0" disallow="tram rail_urban rail rail_electric rail_fast ship container cable_car subway aircraft wheelchair scooter drone" speed="5.56" length="11.38" shape="282208.05,1612653.58 282213.45,1612643.65"/>
        <lane id=":1020278518_6_1" index="1" disallow="tram rail_urban rail rail_electric rail_fast ship container cable_car subway aircraft wheelchair scooter drone" speed="5.56" length="11.38" shape="282210.83,1612655.17 282216.29,1612645.11"/>
    </edge>
    <edge id=":1020278535_0" function="internal">
        <lane id=":1020278535_0_0" index="0" disallow="tram rail_urban rail rail_electric rail_fast ship container cable_car subway aircraft wheelchair scooter drone" speed="6.39" length="9.04" shape="282232.10,1612621.90 282231.18,1612624.22 282231.24,1612626.24 282232.30,1612627.96 282234.35,1612629.39"/>
    </edge>
    <edge id=":1020278535_1" function="internal">
        <lane id=":1020278535_1_0" index="0" disallow="tram rail_urban rail rail_electric rail_fast ship container cable_car subway aircraft wheelchair scooter drone" speed="5.56" length="11.59" shape="282232.10,1612621.90 282226.57,1612632.08"/>
    </edge>
    <edge id=":1020278535_2" function="internal">
        <lane id=":1020278535_2_0" index="0" disallow="tram rail_urban rail rail_electric rail_fast ship container cable_car subway aircraft wheelchair scooter drone" speed="6.99" length="9.83" shape="282218.30,1612621.75 282220.75,1612622.44 282222.94,1612622.16 282224.88,1612620.92 282226.56,1612618.70"/>
    </edge>
    <edge id=":1020278535_3" function="internal">
        <lane id=":1020278535_3_0" index="0" disallow="tram rail_urban rail rail_electric rail_fast ship container cable_car subway aircraft wheelchair scooter drone" speed="13.89" length="17.77" shape="282218.30,1612621.75 282234.35,1612629.39"/>
    </edge>
    <edge id=":1020278535_4" function="internal">
        <lane id=":1020278535_4_0" index="0" disallow="tram rail_urban rail rail_electric rail_fast ship container cable_car subway aircraft wheelchair scooter drone" speed="8.01" length="14.72" shape="282218.30,1612621.75 282222.94,1612624.28 282225.86,1612626.84 282227.07,1612629.44 282226.57,1612632.08"/>
    </edge>
    <edge id=":1020278535_5" function="internal">
        <lane id=":1020278535_5_0" index="0" disallow="tram rail_urban rail rail_electric rail_fast ship container cable_car subway aircraft wheelchair scooter drone" speed="5.56" length="11.82" shape="282220.87,1612629.16 282226.56,1612618.70"/>
        <lane id=":1020278535_5_1" index="1" disallow="tram rail_urban rail rail_electric rail_fast ship container cable_car subway aircraft wheelchair scooter drone" speed="5.56" length="11.82" shape="282223.72,1612630.62 282229.33,1612620.30"/>
    </edge>
    <edge id=":1020278535_7" function="internal">
        <lane id=":1020278535_7_0" index="0" disallow="tram rail_urban rail rail_electric rail_fast ship container cable_car subway aircraft wheelchair scooter drone" speed="7.43" length="12.03" shape="282223.72,1612630.62 282225.39,1612628.58 282227.72,1612627.70 282230.70,1612627.97 282234.35,1612629.39"/>
    </edge>
    <edge id=":1020278556_0" function="internal">
        <lane id=":1020278556_0_0" index="0" disallow="tram rail_urban rail rail_electric rail_fast ship container cable_car subway aircraft wheelchair scooter drone" speed="7.15" length="10.78" shape="282279.58,1612547.89 282277.14,1612547.19 282274.87,1612547.63 282272.79,1612549.20 282270.88,1612551.92"/>
    </edge>
    <edge id=":1020278556_1" function="internal">
        <lane id=":1020278556_1_0" index="0" disallow="tram rail_urban rail rail_electric rail_fast ship container cable_car subway aircraft wheelchair scooter drone" speed="13.89" length="17.88" shape="282279.58,1612547.89 282275.72,1612546.23 282271.27,1612544.61 282266.81,1612542.98 282262.96,1612541.33"/>
    </edge>
    <edge id=":1020278556_2" function="internal">
        <lane id=":1020278556_2_0" index="0" disallow="tram rail_urban rail rail_electric rail_fast ship container cable_car subway aircraft wheelchair scooter drone" speed="7.50" length="12.70" shape="282279.58,1612547.89 282276.32,1612545.76 282274.48,1612543.37 282274.06,1612540.70 282275.05,1612537.76"/>
    </edge>
    <edge id=":1020278556_3" function="internal">
        <lane id=":1020278556_3_0" index="0" disallow="tram rail_urban rail rail_electric rail_fast ship container cable_car subway aircraft wheelchair scooter drone" speed="5.56" length="14.41" shape="282277.85,1612539.31 282270.88,1612551.92"/>
    </edge>
    <edge id=":1020278556_4" function="internal">
        <lane id=":1020278556_4_0" index="0" disallow="tram rail_urban rail rail_electric rail_fast ship container cable_car subway aircraft wheelchair scooter drone" speed="8.80" length="16.85" shape="282277.85,1612539.31 282275.38,1612542.22 282272.08,1612543.53 282267.93,1612543.23 282262.96,1612541.33"/>
    </edge>
    <edge id=":1020278556_5" function="internal">
        <lane id=":1020278556_5_0" index="0" disallow="tram rail_urban rail rail_electric rail_fast ship container cable_car subway aircraft wheelchair scooter drone" speed="6.67" length="9.24" shape="282264.39,1612538.47 282266.83,1612539.30 282268.95,1612539.20 282270.75,1612538.18 282272.25,1612536.22"/>
    </edge>
    <edge id=":1020278556_6" function="internal">
        <lane id=":1020278556_6_0" index="0" disallow="tram rail_urban rail rail_electric rail_fast ship container cable_car subway aircraft wheelchair scooter drone" speed="8.60" length="4.25" shape="282264.39,1612538.47 282267.96,1612540.76"/>
    </edge>
    <edge id=":1020278556_10" function="internal">
        <lane id=":1020278556_10_0" index="0" disallow="tram rail_urban rail rail_electric rail_fast ship container cable_car subway aircraft wheelchair scooter drone" speed="8.60" length="12.83" shape="282267.96,1612540.76 282268.89,1612541.36 282271.47,1612544.57 282272.13,1612548.09 282270.88,1612551.92"/>
    </edge>
    <edge id=":1020278556_7" function="internal">
        <lane id=":1020278556_7_0" index="0" disallow="tram rail_urban rail rail_electric rail_fast ship container cable_car subway aircraft wheelchair scooter drone" speed="6.42" length="9.04" shape="282265.28,1612548.82 282266.16,1612546.50 282266.07,1612544.47 282265.00,1612542.75 282262.96,1612541.33"/>
    </edge>
    <edge id=":1020278556_8" function="internal">
        <lane id=":1020278556_8_0" index="0" disallow="tram rail_urban rail rail_electric rail_fast ship container cable_car subway aircraft wheelchair scooter drone" speed="5.56" length="14.41" shape="282265.28,1612548.82 282272.25,1612536.22"/>
        <lane id=":1020278556_8_1" index="1" disallow="tram rail_urban rail rail_electric rail_fast ship container cable_car subway aircraft wheelchair scooter drone" speed="5.56" length="14.41" shape="282268.08,1612550.37 282275.05,1612537.76"/>
    </edge>
    <edge id=":1020278940_0" function="internal">
        <lane id=":1020278940_0_0" index="0" disallow="tram rail_urban rail rail_electric rail_fast ship container cable_car subway aircraft wheelchair scooter drone" speed="7.60" length="12.15" shape="282333.86,1612456.88 282330.08,1612455.45 282326.99,1612455.11 282324.61,1612455.88 282322.93,1612457.74"/>
    </edge>
    <edge id=":1020278940_1" function="internal">
        <lane id=":1020278940_1_0" index="0" disallow="tram rail_urban rail rail_electric rail_fast ship container cable_car subway aircraft wheelchair scooter drone" speed="11.11" length="21.18" shape="282335.24,1612453.99 282315.59,1612446.10"/>
    </edge>
    <edge id=":1020278940_2" function="internal">
        <lane id=":1020278940_2_0" index="0" disallow="tram rail_urban rail rail_electric rail_fast ship container cable_car subway aircraft wheelchair scooter drone" speed="8.03" length="14.69" shape="282336.62,1612451.11 282332.03,1612448.50 282329.15,1612445.89 282327.96,1612443.28 282328.48,1612440.68"/>
    </edge>
    <edge id=":1020278940_3" function="internal">
        <lane id=":1020278940_3_0" index="0" disallow="tram rail_urban rail rail_electric rail_fast ship container cable_car subway aircraft wheelchair scooter drone" speed="5.56" length="18.08" shape="282334.15,1612443.65 282330.97,1612448.60 282327.88,1612452.04 282325.11,1612454.81 282322.93,1612457.74"/>
    </edge>
    <edge id=":1020278940_4" function="internal">
        <lane id=":1020278940_4_0" index="0" disallow="tram rail_urban rail rail_electric rail_fast ship container cable_car subway aircraft wheelchair scooter drone" speed="8.33" length="18.40" shape="282331.31,1612442.16 282328.48,1612445.93 282324.92,1612447.85 282320.62,1612447.90 282315.59,1612446.10"/>
    </edge>
    <edge id=":1020278940_5" function="internal">
        <lane id=":1020278940_5_0" index="0" disallow="tram rail_urban rail rail_electric rail_fast ship container cable_car subway aircraft wheelchair scooter drone" speed="7.08" length="10.77" shape="282317.03,1612443.24 282319.49,1612443.96 282321.75,1612443.53 282323.80,1612441.94 282325.65,1612439.19"/>
    </edge>
    <edge id=":1020278940_6" function="internal">
        <lane id=":1020278940_6_0" index="0" disallow="tram rail_urban rail rail_electric rail_fast ship container cable_car subway aircraft wheelchair scooter drone" speed="8.33" length="3.44" shape="282317.03,1612443.24 282319.89,1612445.15"/>
    </edge>
    <edge id=":1020278940_10" function="internal">
        <lane id=":1020278940_10_0" index="0" disallow="tram rail_urban rail rail_electric rail_fast ship container cable_car subway aircraft wheelchair scooter drone" speed="8.33" length="14.52" shape="282319.89,1612445.15 282321.48,1612446.21 282323.94,1612449.62 282324.43,1612453.46 282322.93,1612457.74"/>
    </edge>
    <edge id=":1020278940_7" function="internal">
        <lane id=":1020278940_7_0" index="0" disallow="tram rail_urban rail rail_electric rail_fast ship container cable_car subway aircraft wheelchair scooter drone" speed="6.73" length="10.00" shape="282317.33,1612454.65 282318.46,1612451.86 282318.55,1612449.51 282317.59,1612447.59 282315.59,1612446.10"/>
    </edge>
    <edge id=":1020278940_8" function="internal">
        <lane id=":1020278940_8_0" index="0" disallow="tram rail_urban rail rail_electric rail_fast ship container cable_car subway aircraft wheelchair scooter drone" speed="5.56" length="17.59" shape="282317.33,1612454.65 282325.65,1612439.19"/>
        <lane id=":1020278940_8_1" index="1" disallow="tram rail_urban rail rail_electric rail_fast ship container cable_car subway aircraft wheelchair scooter drone" speed="5.56" length="17.59" shape="282320.13,1612456.19 282328.48,1612440.68"/>
    </edge>
    <edge id=":1020279307_0" function="internal">
        <lane id=":1020279307_0_0" index="0" disallow="bicycle tram rail_urban rail rail_electric rail_fast ship container cable_car subway aircraft wheelchair scooter drone" speed="16.67" length="2.46" shape="282153.13,1612674.61 282153.07,1612671.55"/>
        <lane id=":1020279307_0_1" index="1" disallow="bicycle tram rail_urban rail rail_electric rail_fast ship container cable_car subway aircraft wheelchair scooter drone" speed="16.67" length="2.46" shape="282156.33,1612675.49 282155.86,1612673.11"/>
        <lane id=":1020279307_0_2" index="2" disallow="bicycle tram rail_urban rail rail_electric rail_fast ship container cable_car subway aircraft wheelchair scooter drone" speed="16.67" length="2.46" shape="282159.53,1612676.36 282158.66,1612674.67"/>
    </edge>
    <edge id=":1020279307_3" function="internal">
        <lane id=":1020279307_3_0" index="0" disallow="pedestrian bicycle tram rail_urban rail rail_electric rail_fast ship container cable_car subway aircraft wheelchair scooter drone" speed="13.89" length="4.82" shape="282156.68,1612675.58 282161.45,1612676.23"/>
    </edge>
    <edge id=":1020321700_0" function="internal">
        <lane id=":1020321700_0_0" index="0" disallow="tram rail_urban rail rail_electric rail_fast ship container cable_car subway aircraft wheelchair scooter drone" speed="6.65" length="9.22" shape="282384.14,1612741.95 282381.73,1612741.41 282379.69,1612741.79 282378.02,1612743.08 282376.71,1612745.28"/>
    </edge>
    <edge id=":1020321700_1" function="internal">
        <lane id=":1020321700_1_0" index="0" disallow="tram rail_urban rail rail_electric rail_fast ship container cable_car subway aircraft wheelchair scooter drone" speed="13.89" length="14.40" shape="282384.14,1612741.95 282370.68,1612736.80"/>
    </edge>
    <edge id=":1020321700_2" function="internal">
        <lane id=":1020321700_2_0" index="0" disallow="tram rail_urban rail rail_electric rail_fast ship container cable_car subway aircraft wheelchair scooter drone" speed="13.89" length="14.40" shape="282371.83,1612733.81 282385.28,1612738.96"/>
    </edge>
    <edge id=":1020321700_3" function="internal">