<?xml version="1.0" encoding="UTF-8"?>

<!-- generated on 2026-01-26 21:07:57 by Eclipse SUMO netedit Version 1.23.1
<neteditConfiguration xmlns:xsi="http://www.w3.org/2001/XMLSchema-instance" xsi:noNamespaceSchemaLocation="http://sumo.dlr.de/xsd/neteditConfiguration.xsd">

    <input>
        <sumo-net-file value="D:\TricycleABM\maps\net.net.xml"/>
    </input>

    <output>
        <output-file value="D:\TricycleABM\maps\net.net.xml"/>
    </output>

    <processing>
        <geometry.min-radius.fix.railways value="false"/>
        <geometry.avoid-overlap value="false"/>
        <geometry.max-grade.fix value="false"/>
        <offset.disable-normalization value="true"/>
        <lefthand value="0"/>
    </processing>

    <junctions>
        <no-turnarounds value="true"/>
        <junctions.corner-detail value="5"/>
        <junctions.limit-turn-speed value="5.50"/>
        <rectangular-lane-cut value="0"/>
    </junctions>

    <pedestrian>
        <walkingareas value="0"/>
    </pedestrian>

</neteditConfiguration>
-->

<net version="1.20" junctionCornerDetail="5" limitTurnSpeed="5.50" avoidOverlap="0" xmlns:xsi="http://www.w3.org/2001/XMLSchema-instance" xsi:noNamespaceSchemaLocation="http://sumo.dlr.de/xsd/net_file.xsd">

    <location netOffset="0.00,0.00" convBoundary="-637.03,-727.32,705.23,739.59" origBoundary="-10000000000.00,-10000000000.00,10000000000.00,10000000000.00" projParameter="!"/>

    <edge id=":J0_0" function="internal">
        <lane id=":J0_0_0" index="0" speed="3.65" length="4.67" shape="-162.36,530.77 -163.65,531.40 -164.55,531.34 -165.04,530.59 -165.12,529.15"/>
    </edge>
    <edge id=":J1_0" function="internal">
        <lane id=":J1_0_0" index="0" speed="5.58" length="9.35" shape="219.62,728.77 221.47,732.68 221.27,735.36 219.00,736.80 214.68,737.01"/>
        <lane id=":J1_0_1" index="1" speed="3.65" length="9.35" shape="217.97,731.52 218.59,732.82 218.52,733.71 217.77,734.19 216.33,734.26"/>
    </edge>
    <edge id=":J105_0" function="internal">
        <lane id=":J105_0_0" index="0" disallow="pedestrian" speed="6.24" length="9.05" shape="-178.70,299.44 -180.98,298.36 -182.98,298.33 -184.69,299.35 -186.11,301.44"/>
        <lane id=":J105_0_1" index="1" disallow="pedestrian" speed="7.08" length="11.98" shape="-178.70,299.44 -182.17,297.60 -185.04,297.08 -187.31,297.89 -188.99,300.03"/>
    </edge>
    <edge id=":J105_2" function="internal">
        <lane id=":J105_2_0" index="0" disallow="pedestrian" speed="8.33" length="15.23" shape="-178.70,299.44 -191.39,291.09"/>
        <lane id=":J105_2_1" index="1" disallow="pedestrian" speed="8.33" length="15.23" shape="-176.92,296.78 -189.67,288.39"/>
    </edge>
    <edge id=":J107_0" function="internal">
        <lane id=":J107_0_0" index="0" disallow="pedestrian" speed="8.99" length="16.71" shape="-606.91,299.10 -610.34,296.17 -612.14,292.78 -612.33,288.95 -610.89,284.67"/>
        <lane id=":J107_0_1" index="1" disallow="pedestrian" speed="7.68" length="11.93" shape="-605.18,296.41 -607.63,294.31 -608.92,291.89 -609.05,289.15 -608.03,286.10"/>
        <lane id=":J107_0_2" index="2" disallow="pedestrian" speed="6.09" length="7.16" shape="-603.46,293.71 -604.93,292.45 -605.70,291.00 -605.78,289.36 -605.16,287.53"/>
        <lane id=":J107_0_3" index="3" disallow="pedestrian" speed="3.91" length="2.39" shape="-601.73,291.02 -602.22,290.60 -602.48,290.11 -602.51,289.57 -602.30,288.96"/>
    </edge>
    <edge id=":J114_0" function="internal">
        <lane id=":J114_0_0" index="0" disallow="pedestrian" speed="16.67" length="0.53" shape="-511.35,89.63 -511.19,89.32"/>
        <lane id=":J114_0_1" index="1" disallow="pedestrian" speed="16.67" length="0.53" shape="-508.52,91.13 -508.31,90.71"/>
        <lane id=":J114_0_2" index="2" disallow="pedestrian" speed="16.67" length="0.53" shape="-505.70,92.63 -505.43,92.10"/>
        <lane id=":J114_0_3" index="3" disallow="pedestrian" speed="16.67" length="0.53" shape="-502.87,94.13 -502.55,93.50"/>
    </edge>
    <edge id=":J129_0" function="internal">
        <lane id=":J129_0_0" index="0" disallow="pedestrian" speed="7.73" length="10.84" shape="684.51,-339.98 686.49,-337.88 687.51,-335.57 687.57,-333.03 686.67,-330.29"/>
        <lane id=":J129_0_1" index="1" disallow="pedestrian" speed="6.13" length="6.50" shape="682.49,-337.50 683.68,-336.24 684.29,-334.85 684.33,-333.33 683.79,-331.68"/>
        <lane id=":J129_0_2" index="2" disallow="pedestrian" speed="3.93" length="2.17" shape="680.48,-335.01 680.87,-334.59 681.08,-334.13 681.09,-333.62 680.91,-333.07"/>
    </edge>
    <edge id=":J132_0" function="internal">
        <lane id=":J132_0_0" index="0" disallow="pedestrian" speed="7.66" length="15.26" shape="663.43,-344.37 665.84,-347.97 668.68,-349.64 671.97,-349.36 675.69,-347.13"/>
        <lane id=":J132_0_1" index="1" disallow="pedestrian" speed="6.08" length="9.16" shape="666.32,-342.99 667.76,-345.15 669.47,-346.15 671.44,-345.98 673.67,-344.65"/>
        <lane id=":J132_0_2" index="2" disallow="pedestrian" speed="3.91" length="3.05" shape="669.21,-341.61 669.69,-342.33 670.26,-342.66 670.91,-342.61 671.66,-342.16"/>
    </edge>
    <edge id=":J134_0" function="internal">
        <lane id=":J134_0_0" index="0" disallow="pedestrian" speed="6.31" length="9.04" shape="581.59,-96.86 579.29,-97.87 577.28,-97.86 575.56,-96.81 574.14,-94.75"/>
        <lane id=":J134_0_1" index="1" disallow="pedestrian" speed="7.84" length="14.57" shape="583.28,-99.58 579.57,-101.21 576.34,-101.18 573.57,-99.50 571.27,-96.17"/>
    </edge>
    <edge id=":J134_2" function="internal">
        <lane id=":J134_2_0" index="0" disallow="pedestrian" speed="7.16" length="10.15" shape="583.23,-113.49 582.58,-111.12 582.93,-108.92 584.29,-106.88 586.66,-105.01"/>
        <lane id=":J134_2_1" index="1" disallow="pedestrian" speed="7.89" length="12.55" shape="583.23,-113.49 581.96,-109.86 581.82,-106.78 582.83,-104.26 584.97,-102.30"/>
    </edge>
    <edge id=":J134_4" function="internal">
        <lane id=":J134_4_0" index="0" disallow="pedestrian" speed="16.67" length="20.77" shape="583.23,-113.49 574.14,-94.75"/>
        <lane id=":J134_4_1" index="1" disallow="pedestrian" speed="16.67" length="20.77" shape="580.34,-114.86 571.27,-96.17"/>
        <lane id=":J134_4_2" index="2" disallow="pedestrian" speed="16.67" length="20.77" shape="577.44,-116.22 568.40,-97.59"/>
    </edge>
    <edge id=":J136_0" function="internal">
        <lane id=":J136_0_0" index="0" disallow="pedestrian" speed="6.46" length="9.03" shape="493.10,80.84 490.78,79.97 488.75,80.06 487.01,81.12 485.56,83.14"/>
        <lane id=":J136_0_1" index="1" disallow="pedestrian" speed="7.96" length="14.27" shape="494.64,78.03 490.96,76.66 487.75,76.81 485.01,78.48 482.72,81.67"/>
    </edge>
    <edge id=":J136_2" function="internal">
        <lane id=":J136_2_0" index="0" disallow="pedestrian" speed="6.70" length="9.34" shape="494.98,64.62 494.22,66.96 494.43,69.05 495.59,70.86 497.71,72.42"/>
        <lane id=":J136_2_1" index="1" disallow="pedestrian" speed="7.49" length="11.94" shape="494.98,64.62 493.59,68.22 493.33,71.18 494.19,73.52 496.17,75.23"/>
    </edge>
    <edge id=":J136_4" function="internal">
        <lane id=":J136_4_0" index="0" disallow="pedestrian" speed="16.67" length="20.72" shape="494.98,64.62 485.56,83.14"/>
        <lane id=":J136_4_1" index="1" disallow="pedestrian" speed="16.67" length="20.72" shape="492.11,63.19 482.72,81.67"/>
        <lane id=":J136_4_2" index="2" disallow="pedestrian" speed="16.67" length="20.72" shape="489.24,61.77 479.88,80.19"/>
    </edge>
    <edge id=":J15_0" function="internal">
        <lane id=":J15_0_0" index="0" disallow="pedestrian" speed="8.95" length="19.16" shape="-580.20,301.80 -583.33,306.09 -587.03,308.22 -591.30,308.19 -596.14,305.99"/>
        <lane id=":J15_0_1" index="1" disallow="pedestrian" speed="7.65" length="13.69" shape="-583.03,300.30 -585.26,303.37 -587.91,304.89 -590.96,304.87 -594.41,303.30"/>
        <lane id=":J15_0_2" index="2" disallow="pedestrian" speed="6.07" length="8.21" shape="-585.86,298.81 -587.20,300.65 -588.78,301.56 -590.61,301.54 -592.69,300.60"/>
        <lane id=":J15_0_3" index="3" disallow="pedestrian" speed="3.90" length="2.74" shape="-588.69,297.31 -589.13,297.92 -589.66,298.23 -590.27,298.22 -590.96,297.91"/>
    </edge>
    <edge id=":J150_0" function="internal">
        <lane id=":J150_0_0" index="0" disallow="pedestrian" speed="3.65" length="4.67" shape="299.83,578.36 300.65,579.55 300.73,580.44 300.06,581.04 298.65,581.34"/>
    </edge>
    <edge id=":J168_0" function="internal">
        <lane id=":J168_0_0" index="0" disallow="pedestrian" speed="6.33" length="9.04" shape="-113.48,200.50 -111.18,201.49 -109.17,201.47 -107.45,200.42 -106.02,198.36"/>
        <lane id=":J168_0_1" index="1" disallow="pedestrian" speed="7.85" length="14.53" shape="-115.15,203.23 -111.45,204.83 -108.21,204.78 -105.45,203.10 -103.16,199.79"/>
    </edge>
    <edge id=":J168_2" function="internal">
        <lane id=":J168_2_0" index="0" disallow="pedestrian" speed="8.33" length="14.34" shape="-112.39,211.27 -106.02,198.36"/>
        <lane id=":J168_2_1" index="1" disallow="pedestrian" speed="8.33" length="14.34" shape="-109.51,212.65 -103.16,199.79"/>
        <lane id=":J168_2_2" index="2" disallow="pedestrian" speed="8.33" length="14.34" shape="-106.62,214.03 -100.29,201.21"/>
    </edge>
    <edge id=":J20_0" function="internal">
        <lane id=":J20_0_0" index="0" disallow="pedestrian" speed="8.33" length="8.57" shape="-189.08,476.35 -191.32,475.34 -193.17,475.36 -195.04,475.40 -197.31,474.45"/>
        <lane id=":J20_0_1" index="1" disallow="pedestrian" speed="8.33" length="8.57" shape="-187.19,473.77 -189.45,472.74 -191.32,472.75 -193.21,472.78 -195.51,471.81"/>
        <lane id=":J20_0_2" index="2" disallow="pedestrian" speed="8.33" length="8.57" shape="-185.30,471.19 -187.59,470.14 -189.47,470.14 -191.38,470.15 -193.70,469.17"/>
        <lane id=":J20_0_3" index="3" disallow="pedestrian" speed="8.33" length="8.57" shape="-185.30,471.19 -191.90,466.53"/>
    </edge>
    <edge id=":J213_0" function="internal">
        <lane id=":J213_0_0" index="0" disallow="pedestrian" speed="6.54" length="8.11" shape="-147.14,174.28 -147.72,176.39 -147.54,178.25 -146.61,179.88 -144.92,181.26"/>
        <lane id=":J213_0_1" index="1" disallow="pedestrian" speed="8.04" length="12.74" shape="-150.09,173.02 -150.99,176.33 -150.71,179.26 -149.24,181.81 -146.59,183.99"/>
    </edge>
    <edge id=":J213_2" function="internal">
        <lane id=":J213_2_0" index="0" disallow="pedestrian" speed="7.41" length="13.11" shape="-150.09,173.02 -152.25,177.19 -154.49,179.76 -156.81,180.74 -159.22,180.12"/>
    </edge>
    <edge id=":J213_3" function="internal">
        <lane id=":J213_3_0" index="0" disallow="pedestrian" speed="8.33" length="13.13" shape="-157.62,177.35 -154.60,178.53 -151.77,178.94 -148.68,179.54 -144.92,181.26"/>
        <lane id=":J213_3_1" index="1" disallow="pedestrian" speed="8.33" length="13.13" shape="-157.62,177.35 -146.59,183.99"/>
    </edge>
    <edge id=":J226_0" function="internal">
        <lane id=":J226_0_0" index="0" disallow="pedestrian" speed="6.88" length="10.10" shape="-71.28,149.87 -73.57,148.32 -74.83,146.41 -75.05,144.13 -74.25,141.50"/>
        <lane id=":J226_0_1" index="1" disallow="pedestrian" speed="6.10" length="7.73" shape="-71.28,149.87 -72.31,148.93 -72.67,147.45 -72.35,145.42 -71.35,142.86"/>
    </edge>
    <edge id=":J226_2" function="internal">
        <lane id=":J226_2_0" index="0" disallow="pedestrian" speed="8.33" length="9.29" shape="-81.16,148.43 -77.14,140.14"/>
        <lane id=":J226_2_1" index="1" disallow="pedestrian" speed="8.33" length="9.29" shape="-78.29,149.86 -74.25,141.50"/>
        <lane id=":J226_2_2" index="2" disallow="pedestrian" speed="8.33" length="9.29" shape="-75.43,151.28 -71.35,142.86"/>
    </edge>
    <edge id=":J226_5" function="internal">
        <lane id=":J226_5_0" index="0" disallow="pedestrian" speed="6.09" length="7.73" shape="-75.43,151.28 -74.03,148.91 -72.64,147.40 -71.25,146.76 -69.87,147.00"/>
    </edge>
    <edge id=":J232_0" function="internal">
        <lane id=":J232_0_0" index="0" disallow="pedestrian" speed="8.33" length="11.64" shape="-237.70,-169.74 -240.29,-171.74 -242.13,-173.03 -244.08,-174.15 -246.98,-175.66"/>
        <lane id=":J232_0_1" index="1" disallow="pedestrian" speed="8.33" length="11.64" shape="-235.73,-172.26 -238.46,-174.37 -240.41,-175.73 -242.46,-176.91 -245.52,-178.50"/>
        <lane id=":J232_0_2" index="2" disallow="pedestrian" speed="8.33" length="11.64" shape="-233.76,-174.79 -236.64,-177.00 -238.68,-178.43 -240.84,-179.68 -244.06,-181.35"/>
    </edge>
    <edge id=":J232_3" function="internal">
        <lane id=":J232_3_0" index="0" disallow="pedestrian" speed="6.66" length="9.03" shape="-244.60,-167.98 -243.89,-170.44 -244.05,-172.54 -245.08,-174.28 -246.98,-175.66"/>
    </edge>
    <edge id=":J234_0" function="internal">
        <lane id=":J234_0_0" index="0" disallow="pedestrian" speed="8.33" length="14.82" shape="-217.68,-154.79 -221.47,-157.21 -223.98,-158.99 -226.41,-160.89 -229.94,-163.69"/>
        <lane id=":J234_0_1" index="1" disallow="pedestrian" speed="8.33" length="14.82" shape="-215.99,-157.50 -219.69,-159.88 -222.15,-161.62 -224.52,-163.48 -227.97,-166.21"/>
        <lane id=":J234_0_2" index="2" disallow="pedestrian" speed="8.33" length="14.82" shape="-214.29,-160.22 -217.91,-162.54 -220.31,-164.24 -222.63,-166.06 -226.00,-168.73"/>
    </edge>
    <edge id=":J234_3" function="internal">
        <lane id=":J234_3_0" index="0" disallow="pedestrian" speed="7.38" length="10.30" shape="-214.29,-160.22 -216.35,-161.96 -217.49,-164.03 -217.71,-166.43 -217.01,-169.17"/>
    </edge>
    <edge id=":J234_4" function="internal">
        <lane id=":J234_4_0" index="0" disallow="pedestrian" speed="7.88" length="10.96" shape="-226.74,-154.09 -226.10,-156.70 -226.41,-159.16 -227.70,-161.49 -229.94,-163.69"/>
    </edge>
    <edge id=":J234_5" function="internal">
        <lane id=":J234_5_0" index="0" disallow="pedestrian" speed="8.33" length="17.64" shape="-226.74,-154.09 -219.98,-170.36"/>
        <lane id=":J234_5_1" index="1" disallow="pedestrian" speed="8.33" length="17.64" shape="-223.79,-152.85 -217.01,-169.17"/>
    </edge>
    <edge id=":J235_0" function="internal">
        <lane id=":J235_0_0" index="0" disallow="pedestrian" speed="6.10" length="9.06" shape="-116.20,-90.75 -118.50,-91.88 -120.47,-91.89 -122.10,-90.80 -123.40,-88.59"/>
    </edge>
    <edge id=":J235_1" function="internal">
        <lane id=":J235_1_0" index="0" disallow="pedestrian" speed="8.33" length="19.65" shape="-116.20,-90.75 -132.42,-101.62"/>
        <lane id=":J235_1_1" index="1" disallow="pedestrian" speed="8.33" length="19.65" shape="-114.40,-93.39 -130.72,-104.33"/>
        <lane id=":J235_1_2" index="2" disallow="pedestrian" speed="8.33" length="19.65" shape="-112.59,-96.04 -129.03,-107.05"/>
    </edge>
    <edge id=":J235_4" function="internal">
        <lane id=":J235_4_0" index="0" disallow="pedestrian" speed="8.33" length="19.94" shape="-115.89,-107.13 -123.40,-88.59"/>
        <lane id=":J235_4_1" index="1" disallow="pedestrian" speed="8.33" length="19.94" shape="-118.87,-108.28 -126.36,-89.80"/>
        <lane id=":J235_4_2" index="2" disallow="pedestrian" speed="8.33" length="19.94" shape="-121.85,-109.44 -129.32,-91.02"/>
    </edge>
    <edge id=":J235_7" function="internal">
        <lane id=":J235_7_0" index="0" disallow="pedestrian" speed="6.99" length="12.10" shape="-121.85,-109.44 -123.65,-105.91 -125.73,-103.88 -128.09,-103.36 -130.72,-104.33"/>
        <lane id=":J235_7_1" index="1" disallow="pedestrian" speed="6.14" length="9.06" shape="-121.85,-109.44 -123.11,-107.22 -124.72,-106.08 -126.69,-106.02 -129.03,-107.05"/>
    </edge>
    <edge id=":J238_0" function="internal">
        <lane id=":J238_0_0" index="0" disallow="pedestrian" speed="8.33" length="17.36" shape="8.10,-12.09 -6.55,-21.10"/>
        <lane id=":J238_0_1" index="1" disallow="pedestrian" speed="8.33" length="17.36" shape="9.88,-14.75 -4.91,-23.85"/>
        <lane id=":J238_0_2" index="2" disallow="pedestrian" speed="8.33" length="17.36" shape="11.65,-17.41 -3.27,-26.60"/>
    </edge>
    <edge id=":J238_3" function="internal">
        <lane id=":J238_3_0" index="0" disallow="pedestrian" speed="7.03" length="9.72" shape="11.65,-17.41 9.52,-19.24 8.35,-21.23 8.13,-23.39 8.87,-25.71"/>
    </edge>
    <edge id=":J238_4" function="internal">
        <lane id=":J238_4_0" index="0" disallow="pedestrian" speed="6.70" length="9.17" shape="-4.74,-13.15 -3.84,-15.62 -3.84,-17.77 -4.75,-19.60 -6.55,-21.10"/>
    </edge>
    <edge id=":J238_5" function="internal">
        <lane id=":J238_5_0" index="0" disallow="pedestrian" speed="8.33" length="17.73" shape="-1.89,-11.69 1.17,-16.57 4.15,-19.97 6.80,-22.74 8.87,-25.71"/>
    </edge>
    <edge id=":J284_0" function="internal">
        <lane id=":J284_0_0" index="0" disallow="pedestrian" speed="8.33" length="17.23" shape="-63.07,-54.81 -77.60,-64.43"/>
        <lane id=":J284_0_1" index="1" disallow="pedestrian" speed="8.33" length="17.23" shape="-61.43,-57.56 -75.79,-67.08"/>
        <lane id=":J284_0_2" index="2" disallow="pedestrian" speed="8.33" length="17.23" shape="-59.79,-60.31 -73.99,-69.72"/>
    </edge>
    <edge id=":J284_3" function="internal">
        <lane id=":J284_3_0" index="0" disallow="pedestrian" speed="8.33" length="14.72" shape="-59.79,-60.31 -63.95,-63.22 -66.56,-66.08 -67.63,-68.87 -67.14,-71.61"/>
        <lane id=":J284_3_1" index="1" disallow="pedestrian" speed="7.73" length="12.12" shape="-59.79,-60.31 -62.73,-62.52 -64.45,-64.91 -64.96,-67.50 -64.24,-70.26"/>
        <lane id=":J284_3_2" index="2" disallow="pedestrian" speed="6.98" length="9.72" shape="-59.79,-60.31 -61.52,-61.82 -62.35,-63.75 -62.29,-66.12 -61.34,-68.92"/>
    </edge>
    <edge id=":J287_0" function="internal">
        <lane id=":J287_0_0" index="0" disallow="pedestrian" speed="8.33" length="13.52" shape="13.16,-215.86 11.31,-217.94 10.60,-220.70 11.02,-224.15 12.58,-228.28"/>
    </edge>
    <edge id=":J287_1" function="internal">
        <lane id=":J287_1_0" index="0" disallow="pedestrian" speed="6.23" length="9.05" shape="-0.59,-228.95 1.70,-227.88 3.70,-227.87 5.39,-228.91 6.79,-231.02"/>
    </edge>
    <edge id=":J287_2" function="internal">
        <lane id=":J287_2_0" index="0" disallow="pedestrian" speed="8.33" length="15.87" shape="0.04,-216.63 6.79,-231.02"/>
        <lane id=":J287_2_1" index="1" disallow="pedestrian" speed="8.33" length="15.87" shape="2.94,-215.28 9.68,-229.65"/>
        <lane id=":J287_2_2" index="2" disallow="pedestrian" speed="8.33" length="15.87" shape="5.85,-213.94 12.58,-228.28"/>
    </edge>
    <edge id=":J288_0" function="internal">
        <lane id=":J288_0_0" index="0" disallow="pedestrian" speed="6.10" length="9.06" shape="53.15,-342.88 55.45,-341.73 57.42,-341.70 59.06,-342.79 60.38,-344.98"/>
    </edge>
    <edge id=":J288_1" function="internal">
        <lane id=":J288_1_0" index="0" disallow="pedestrian" speed="7.28" length="10.12" shape="54.50,-331.62 55.16,-333.98 54.85,-336.20 53.58,-338.29 51.33,-340.25"/>
    </edge>
    <edge id=":J288_2" function="internal">
        <lane id=":J288_2_0" index="0" disallow="pedestrian" speed="8.33" length="14.74" shape="54.50,-331.62 60.38,-344.98"/>
        <lane id=":J288_2_1" index="1" disallow="pedestrian" speed="8.33" length="14.74" shape="57.39,-330.25 63.33,-343.74"/>
        <lane id=":J288_2_2" index="2" disallow="pedestrian" speed="8.33" length="14.74" shape="60.28,-328.88 66.28,-342.50"/>
    </edge>
    <edge id=":J290_0" function="internal">
        <lane id=":J290_0_0" index="0" disallow="pedestrian" speed="8.33" length="9.52" shape="36.89,-481.43 32.84,-472.73"/>
        <lane id=":J290_0_1" index="1" disallow="pedestrian" speed="8.33" length="9.52" shape="33.97,-482.74 29.96,-474.11"/>
        <lane id=":J290_0_2" index="2" disallow="pedestrian" speed="8.33" length="9.52" shape="31.06,-484.06 27.07,-475.50"/>
    </edge>
    <edge id=":J290_3" function="internal">
        <lane id=":J290_3_0" index="0" disallow="pedestrian" speed="6.00" length="7.99" shape="31.06,-484.06 29.71,-481.60 28.30,-480.08 26.85,-479.51 25.35,-479.88"/>
    </edge>
    <edge id=":J290_4" function="internal">
        <lane id=":J290_4_0" index="0" disallow="pedestrian" speed="7.03" length="10.24" shape="26.90,-482.68 29.21,-480.97 30.49,-478.97 30.74,-476.69 29.96,-474.11"/>
        <lane id=":J290_4_1" index="1" disallow="pedestrian" speed="6.26" length="7.91" shape="26.90,-482.68 27.98,-481.64 28.37,-480.09 28.07,-478.05 27.07,-475.50"/>
    </edge>
    <edge id=":J291_0" function="internal">
        <lane id=":J291_0_0" index="0" disallow="pedestrian" speed="6.04" length="9.07" shape="-4.99,-379.30 -7.30,-380.45 -9.26,-380.47 -10.86,-379.35 -12.11,-377.09"/>
    </edge>
    <edge id=":J291_1" function="internal">
        <lane id=":J291_1_0" index="0" disallow="pedestrian" speed="8.33" length="18.95" shape="-4.99,-379.30 -20.69,-389.92"/>
    </edge>
    <edge id=":J291_2" function="internal">
        <lane id=":J291_2_0" index="0" disallow="pedestrian" speed="7.72" length="11.54" shape="-5.82,-392.03 -6.77,-389.07 -6.64,-386.40 -5.44,-384.02 -3.17,-381.93"/>
    </edge>
    <edge id=":J291_3" function="internal">
        <lane id=":J291_3_0" index="0" disallow="pedestrian" speed="8.33" length="16.48" shape="-5.82,-392.03 -12.11,-377.09"/>
        <lane id=":J291_3_1" index="1" disallow="pedestrian" speed="8.33" length="16.48" shape="-8.70,-393.42 -15.10,-378.23"/>
        <lane id=":J291_3_2" index="2" disallow="pedestrian" speed="8.33" length="16.48" shape="-11.59,-394.80 -18.09,-379.36"/>
    </edge>
    <edge id=":J291_6" function="internal">
        <lane id=":J291_6_0" index="0" disallow="pedestrian" speed="7.12" length="11.93" shape="-11.59,-394.80 -13.62,-391.45 -15.81,-389.52 -18.17,-389.01 -20.69,-389.92"/>
    </edge>
    <edge id=":J291_7" function="internal">
        <lane id=":J291_7_0" index="0" disallow="pedestrian" speed="8.33" length="19.11" shape="-19.00,-392.64 -3.17,-381.93"/>
    </edge>
    <edge id=":J291_8" function="internal">
        <lane id=":J291_8_0" index="0" disallow="pedestrian" speed="8.33" length="2.70" shape="-19.00,-392.64 -17.14,-390.68"/>
    </edge>
    <edge id=":J291_9" function="internal">
        <lane id=":J291_9_0" index="0" disallow="pedestrian" speed="8.33" length="11.64" shape="-17.14,-390.68 -16.37,-387.82 -16.68,-384.05 -18.09,-379.36"/>
    </edge>
    <edge id=":J293_0" function="internal">
        <lane id=":J293_0_0" index="0" disallow="pedestrian" speed="7.43" length="10.07" shape="-52.49,-270.76 -53.24,-267.88 -53.16,-265.42 -52.24,-263.37 -50.49,-261.74"/>
    </edge>
    <edge id=":J293_1" function="internal">
        <lane id=":J293_1_0" index="0" disallow="pedestrian" speed="8.33" length="11.76" shape="-52.49,-270.76 -56.71,-259.75"/>
        <lane id=":J293_1_1" index="1" disallow="pedestrian" speed="8.33" length="11.76" shape="-55.48,-271.89 -59.69,-260.91"/>
        <lane id=":J293_1_2" index="2" disallow="pedestrian" speed="8.33" length="11.76" shape="-58.47,-273.03 -62.67,-262.07"/>
    </edge>
    <edge id=":J293_4" function="internal">
        <lane id=":J293_4_0" index="0" disallow="pedestrian" speed="8.33" length="16.86" shape="-64.68,-270.85 -50.49,-261.74"/>
    </edge>
    <edge id=":J293_5" function="internal">
        <lane id=":J293_5_0" index="0" disallow="pedestrian" speed="7.94" length="12.22" shape="-64.68,-270.85 -61.67,-268.63 -59.84,-266.24 -59.17,-263.67 -59.69,-260.91"/>
        <lane id=":J293_5_1" index="1" disallow="pedestrian" speed="7.21" length="9.91" shape="-64.68,-270.85 -62.91,-269.32 -61.98,-267.35 -61.90,-264.93 -62.67,-262.07"/>
    </edge>
    <edge id=":J294_0" function="internal">
        <lane id=":J294_0_0" index="0" disallow="pedestrian" speed="6.13" length="9.06" shape="-162.39,-329.44 -160.11,-328.29 -158.13,-328.24 -156.46,-329.29 -155.10,-331.45"/>
    </edge>
    <edge id=":J294_1" function="internal">
        <lane id=":J294_1_0" index="0" disallow="pedestrian" speed="8.33" length="15.01" shape="-162.39,-329.44 -149.92,-321.08"/>
    </edge>
    <edge id=":J294_2" function="internal">
        <lane id=":J294_2_0" index="0" disallow="pedestrian" speed="8.33" length="12.63" shape="-160.12,-319.80 -155.10,-331.45"/>
        <lane id=":J294_2_1" index="1" disallow="pedestrian" speed="8.33" length="12.63" shape="-157.15,-318.61 -152.18,-330.15"/>
    </edge>
    <edge id=":J294_4" function="internal">
        <lane id=":J294_4_0" index="0" disallow="pedestrian" speed="6.20" length="9.05" shape="-157.15,-318.61 -155.88,-320.81 -154.25,-321.95 -152.27,-322.04 -149.92,-321.08"/>
    </edge>
    <edge id=":J295_0" function="internal">
        <lane id=":J295_0_0" index="0" disallow="pedestrian" speed="8.33" length="15.55" shape="-97.84,-437.91 -110.99,-446.22"/>
    </edge>
    <edge id=":J295_1" function="internal">
        <lane id=":J295_1_0" index="0" disallow="pedestrian" speed="8.27" length="2.70" shape="-97.84,-437.91 -99.76,-439.82"/>
    </edge>
    <edge id=":J295_8" function="internal">
        <lane id=":J295_8_0" index="0" disallow="pedestrian" speed="8.27" length="10.55" shape="-99.76,-439.82 -100.61,-442.47 -100.39,-445.88 -99.09,-450.03"/>
    </edge>
    <edge id=":J295_2" function="internal">
        <lane id=":J295_2_0" index="0" disallow="pedestrian" speed="6.15" length="9.06" shape="-109.27,-448.92 -106.95,-447.88 -104.97,-447.91 -103.34,-449.03 -102.05,-451.23"/>
    </edge>
    <edge id=":J295_3" function="internal">
        <lane id=":J295_3_0" index="0" disallow="pedestrian" speed="8.33" length="15.52" shape="-109.27,-448.92 -96.15,-440.63"/>
    </edge>
    <edge id=":J295_4" function="internal">
        <lane id=":J295_4_0" index="0" disallow="pedestrian" speed="7.43" length="10.73" shape="-108.10,-436.97 -107.31,-439.71 -107.53,-442.17 -108.76,-444.34 -110.99,-446.22"/>
    </edge>
    <edge id=":J295_5" function="internal">
        <lane id=":J295_5_0" index="0" disallow="pedestrian" speed="8.33" length="15.55" shape="-108.10,-436.97 -102.05,-451.23"/>
        <lane id=":J295_5_1" index="1" disallow="pedestrian" speed="8.33" length="15.55" shape="-105.17,-435.67 -99.09,-450.03"/>
    </edge>
    <edge id=":J295_7" function="internal">
        <lane id=":J295_7_0" index="0" disallow="pedestrian" speed="7.07" length="11.99" shape="-105.17,-435.67 -103.23,-439.08 -101.07,-441.05 -98.72,-441.57 -96.15,-440.63"/>
    </edge>
    <edge id=":J296_0" function="internal">
        <lane id=":J296_0_0" index="0" disallow="pedestrian" speed="6.50" length="7.98" shape="-63.49,-529.07 -64.61,-530.12 -65.10,-531.68 -64.97,-533.77 -64.21,-536.38"/>
    </edge>
    <edge id=":J296_1" function="internal">
        <lane id=":J296_1_0" index="0" disallow="pedestrian" speed="8.33" length="9.37" shape="-70.59,-528.81 -67.21,-537.50"/>
        <lane id=":J296_1_1" index="1" disallow="pedestrian" speed="8.33" length="9.37" shape="-67.63,-527.60 -64.21,-536.38"/>
    </edge>
    <edge id=":J296_3" function="internal">
        <lane id=":J296_3_0" index="0" disallow="pedestrian" speed="5.97" length="8.11" shape="-67.63,-527.60 -66.35,-530.14 -64.98,-531.69 -63.51,-532.27 -61.94,-531.87"/>
    </edge>
    <edge id=":J299_0" function="internal">
        <lane id=":J299_0_0" index="0" disallow="pedestrian" speed="6.50" length="9.03" shape="-64.34,-560.41 -62.00,-559.59 -59.96,-559.71 -58.23,-560.78 -56.79,-562.80"/>
    </edge>
    <edge id=":J299_1" function="internal">
        <lane id=":J299_1_0" index="0" disallow="pedestrian" speed="6.90" length="9.32" shape="-62.59,-549.83 -62.08,-552.22 -62.45,-554.30 -63.69,-556.08 -65.81,-557.57"/>
    </edge>
    <edge id=":J299_2" function="internal">
        <lane id=":J299_2_0" index="0" disallow="pedestrian" speed="8.33" length="14.03" shape="-62.59,-549.83 -61.09,-553.78 -59.98,-556.44 -58.72,-559.05 -56.79,-562.80"/>
        <lane id=":J299_2_1" index="1" disallow="pedestrian" speed="8.33" length="14.03" shape="-59.59,-548.71 -58.14,-552.55 -57.05,-555.14 -55.83,-557.68 -53.95,-561.33"/>
    </edge>
    <edge id=":J30_0" function="internal">
        <lane id=":J30_0_0" index="0" disallow="pedestrian" speed="8.33" length="0.49" shape="-43.34,580.19 -43.55,580.07 -43.69,579.98 -43.83,579.89 -44.03,579.75"/>
        <lane id=":J30_0_1" index="1" disallow="pedestrian" speed="8.33" length="0.49" shape="-41.77,577.40 -41.89,577.33 -41.98,577.28 -42.06,577.22 -42.18,577.14"/>
        <lane id=":J30_0_2" index="2" disallow="pedestrian" speed="8.33" length="0.49" shape="-40.20,574.61 -40.24,574.59 -40.27,574.57 -40.29,574.55 -40.33,574.53"/>
    </edge>
    <edge id=":J31_0" function="internal">
        <lane id=":J31_0_0" index="0" disallow="pedestrian" speed="8.15" length="10.43" shape="98.62,670.34 96.13,669.66 93.72,669.80 91.37,670.77 89.10,672.56"/>
    </edge>
    <edge id=":J31_1" function="internal">
        <lane id=":J31_1_0" index="0" disallow="pedestrian" speed="8.33" length="13.87" shape="98.62,670.34 94.71,668.53 92.16,667.03 89.75,665.28 86.29,662.69"/>
        <lane id=":J31_1_1" index="1" disallow="pedestrian" speed="8.33" length="13.87" shape="99.89,667.40 96.17,665.68 93.75,664.25 91.47,662.57 88.17,660.10"/>
        <lane id=":J31_1_2" index="2" disallow="pedestrian" speed="8.33" length="13.87" shape="101.17,664.47 97.64,662.82 95.34,661.46 93.18,659.86 90.05,657.51"/>
    </edge>
    <edge id=":J31_4" function="internal">
        <lane id=":J31_4_0" index="0" disallow="pedestrian" speed="6.18" length="9.05" shape="86.86,670.28 88.39,668.26 88.81,666.32 88.11,664.46 86.29,662.69"/>
    </edge>
    <edge id=":J311_0" function="internal">