<?xml version="1.0" encoding="UTF-8"?>

<!-- generated on 2025-10-07 14:22:30 by Eclipse SUMO netedit Version 1.23.1
<neteditConfiguration xmlns:xsi="http://www.w3.org/2001/XMLSchema-instance" xsi:noNamespaceSchemaLocation="http://sumo.dlr.de/xsd/neteditConfiguration.xsd">

    <input>
        <additional-files value="D:\TricycleABM\maps\parking.add.xml"/>
        <route-files value="D:\TricycleABM\assets\routesfinal.rou.xml"/>
        <sumo-net-file value="D:\TricycleABM\maps\net.net.xml"/>
    </input>

    <output>
        <output-file value="D:\TricycleABM\maps\net.net.xml"/>
    </output>

    <processing>
        <geometry.min-radius.fix.railways value="false"/>
        <geometry.avoid-overlap value="false"/>
        <geometry.max-grade.fix value="false"/>
        <offset.disable-normalization value="true"/>
        <lefthand value="0"/>
    </processing>

    <junctions>
        <no-turnarounds value="true"/>
        <junctions.corner-detail value="5"/>
        <junctions.limit-turn-speed value="5.50"/>
        <rectangular-lane-cut value="0"/>
    </junctions>

    <pedestrian>
        <walkingareas value="0"/>
    </pedestrian>

</neteditConfiguration>
-->

<net version="1.20" junctionCornerDetail="5" limitTurnSpeed="5.50" avoidOverlap="0" xmlns:xsi="http://www.w3.org/2001/XMLSchema-instance" xsi:noNamespaceSchemaLocation="http://sumo.dlr.de/xsd/net_file.xsd">

    <location netOffset="0.00,0.00" convBoundary="-637.03,-727.32,705.23,739.59" origBoundary="-10000000000.00,-10000000000.00,10000000000.00,10000000000.00" projParameter="!"/>

    <edge id=":J0_0" function="internal">
        <lane id=":J0_0_0" index="0" speed="3.65" length="4.67" shape="-162.36,530.77 -163.65,531.40 -164.55,531.34 -165.04,530.59 -165.12,529.15"/>
    </edge>
    <edge id=":J1_0" function="internal">
        <lane id=":J1_0_0" index="0" speed="5.58" length="9.35" shape="219.62,728.77 221.47,732.68 221.27,735.36 219.01,736.80 214.68,737.00"/>
        <lane id=":J1_0_1" index="1" speed="3.65" length="9.35" shape="217.97,731.52 218.59,732.82 218.52,733.71 217.77,734.19 216.33,734.26"/>
    </edge>
    <edge id=":J105_0" function="internal">
        <lane id=":J105_0_0" index="0" disallow="pedestrian" speed="6.37" length="9.48" shape="-178.47,299.60 -180.86,298.46 -182.95,298.43 -184.74,299.51 -186.24,301.69"/>
        <lane id=":J105_0_1" index="1" disallow="pedestrian" speed="7.20" length="12.41" shape="-178.47,299.60 -182.04,297.70 -185.01,297.18 -187.37,298.04 -189.11,300.28"/>
    </edge>
    <edge id=":J105_2" function="internal">
        <lane id=":J105_2_0" index="0" disallow="pedestrian" speed="13.89" length="13.51" shape="-178.47,299.60 -189.70,292.16"/>
        <lane id=":J105_2_1" index="1" disallow="pedestrian" speed="13.89" length="13.51" shape="-176.69,296.94 -187.99,289.46"/>
    </edge>
    <edge id=":J107_0" function="internal">
        <lane id=":J107_0_0" index="0" disallow="pedestrian" speed="8.99" length="16.71" shape="-606.91,299.10 -610.34,296.17 -612.14,292.78 -612.33,288.95 -610.89,284.67"/>
        <lane id=":J107_0_1" index="1" disallow="pedestrian" speed="7.68" length="11.93" shape="-605.18,296.41 -607.63,294.31 -608.92,291.89 -609.05,289.15 -608.03,286.10"/>
        <lane id=":J107_0_2" index="2" disallow="pedestrian" speed="6.09" length="7.16" shape="-603.46,293.71 -604.93,292.45 -605.70,291.00 -605.78,289.36 -605.16,287.53"/>
        <lane id=":J107_0_3" index="3" disallow="pedestrian" speed="3.91" length="2.39" shape="-601.73,291.02 -602.22,290.60 -602.48,290.11 -602.51,289.57 -602.30,288.96"/>
    </edge>
    <edge id=":J114_0" function="internal">
        <lane id=":J114_0_0" index="0" disallow="pedestrian" speed="13.89" length="0.71" shape="-511.39,89.71 -511.15,89.23"/>
        <lane id=":J114_0_1" index="1" disallow="pedestrian" speed="13.89" length="0.71" shape="-508.57,91.21 -508.27,90.63"/>
        <lane id=":J114_0_2" index="2" disallow="pedestrian" speed="13.89" length="0.71" shape="-505.74,92.71 -505.39,92.02"/>
        <lane id=":J114_0_3" index="3" disallow="pedestrian" speed="13.89" length="0.71" shape="-502.92,94.21 -502.51,93.42"/>
    </edge>
    <edge id=":J129_0" function="internal">
        <lane id=":J129_0_0" index="0" disallow="pedestrian" speed="9.35" length="16.26" shape="682.05,-341.98 685.02,-338.83 686.55,-335.35 686.64,-331.55 685.29,-327.44"/>
        <lane id=":J129_0_1" index="1" disallow="pedestrian" speed="8.08" length="11.92" shape="680.03,-339.49 682.21,-337.18 683.33,-334.63 683.40,-331.85 682.41,-328.83"/>
        <lane id=":J129_0_2" index="2" disallow="pedestrian" speed="6.57" length="7.59" shape="678.02,-337.01 679.40,-335.54 680.12,-333.91 680.16,-332.14 679.53,-330.22"/>
    </edge>
    <edge id=":J132_0" function="internal">
        <lane id=":J132_0_0" index="0" disallow="pedestrian" speed="8.95" length="21.28" shape="661.71,-340.76 665.06,-345.79 669.03,-348.11 673.61,-347.72 678.80,-344.62"/>
        <lane id=":J132_0_1" index="1" disallow="pedestrian" speed="7.64" length="15.17" shape="664.59,-339.38 666.99,-342.97 669.82,-344.62 673.08,-344.34 676.78,-342.13"/>
        <lane id=":J132_0_2" index="2" disallow="pedestrian" speed="6.06" length="9.07" shape="667.48,-338.00 668.91,-340.14 670.60,-341.13 672.55,-340.97 674.76,-339.64"/>
    </edge>
    <edge id=":J134_0" function="internal">
        <lane id=":J134_0_0" index="0" disallow="pedestrian" speed="6.41" length="9.36" shape="581.76,-96.76 579.38,-97.80 577.30,-97.78 575.52,-96.71 574.05,-94.57"/>
        <lane id=":J134_0_1" index="1" disallow="pedestrian" speed="7.92" length="14.88" shape="583.45,-99.47 579.66,-101.13 576.36,-101.11 573.53,-99.39 571.18,-95.99"/>
    </edge>
    <edge id=":J134_2" function="internal">
        <lane id=":J134_2_0" index="0" disallow="pedestrian" speed="7.16" length="10.15" shape="583.14,-113.29 582.54,-111.00 582.95,-108.84 584.38,-106.81 586.83,-104.91"/>
        <lane id=":J134_2_1" index="1" disallow="pedestrian" speed="7.88" length="12.52" shape="583.14,-113.29 581.92,-109.74 581.84,-106.71 582.92,-104.19 585.14,-102.19"/>
    </edge>
    <edge id=":J134_4" function="internal">
        <lane id=":J134_4_0" index="0" disallow="pedestrian" speed="13.89" length="20.75" shape="583.14,-113.29 574.05,-94.57"/>
        <lane id=":J134_4_1" index="1" disallow="pedestrian" speed="13.89" length="20.75" shape="580.24,-114.66 571.18,-95.99"/>
        <lane id=":J134_4_2" index="2" disallow="pedestrian" speed="13.89" length="20.75" shape="577.35,-116.02 568.31,-97.41"/>
    </edge>
    <edge id=":J136_0" function="internal">
        <lane id=":J136_0_0" index="0" disallow="pedestrian" speed="6.48" length="9.10" shape="493.14,80.86 490.80,79.99 488.75,80.08 487.00,81.14 485.54,83.18"/>
        <lane id=":J136_0_1" index="1" disallow="pedestrian" speed="7.98" length="14.34" shape="494.68,78.05 490.98,76.67 487.76,76.82 485.00,78.50 482.70,81.70"/>
    </edge>
    <edge id=":J136_2" function="internal">
        <lane id=":J136_2_0" index="0" disallow="pedestrian" speed="6.69" length="9.32" shape="494.94,64.69 494.21,67.00 494.43,69.07 495.61,70.88 497.75,72.44"/>
        <lane id=":J136_2_1" index="1" disallow="pedestrian" speed="7.48" length="11.90" shape="494.94,64.69 493.58,68.26 493.33,71.21 494.21,73.54 496.21,75.25"/>
    </edge>
    <edge id=":J136_4" function="internal">
        <lane id=":J136_4_0" index="0" disallow="pedestrian" speed="13.89" length="20.69" shape="494.94,64.69 485.54,83.18"/>
        <lane id=":J136_4_1" index="1" disallow="pedestrian" speed="13.89" length="20.69" shape="492.08,63.26 482.70,81.70"/>
        <lane id=":J136_4_2" index="2" disallow="pedestrian" speed="13.89" length="20.69" shape="489.21,61.84 479.86,80.23"/>
    </edge>
    <edge id=":J15_0" function="internal">
        <lane id=":J15_0_0" index="0" disallow="pedestrian" speed="8.95" length="19.16" shape="-580.20,301.80 -583.33,306.09 -587.03,308.22 -591.30,308.19 -596.14,305.99"/>
        <lane id=":J15_0_1" index="1" disallow="pedestrian" speed="7.65" length="13.69" shape="-583.03,300.30 -585.26,303.37 -587.91,304.89 -590.96,304.87 -594.41,303.30"/>
        <lane id=":J15_0_2" index="2" disallow="pedestrian" speed="6.07" length="8.21" shape="-585.86,298.81 -587.20,300.65 -588.78,301.56 -590.61,301.54 -592.69,300.60"/>
        <lane id=":J15_0_3" index="3" disallow="pedestrian" speed="3.90" length="2.74" shape="-588.69,297.31 -589.13,297.92 -589.66,298.23 -590.27,298.22 -590.96,297.91"/>
    </edge>
    <edge id=":J150_0" function="internal">
        <lane id=":J150_0_0" index="0" disallow="pedestrian" speed="3.65" length="4.67" shape="299.83,578.36 300.65,579.55 300.73,580.44 300.06,581.04 298.65,581.34"/>
    </edge>
    <edge id=":J168_0" function="internal">
        <lane id=":J168_0_0" index="0" disallow="pedestrian" speed="6.41" length="9.33" shape="-113.64,200.41 -111.26,201.43 -109.18,201.40 -107.41,200.33 -105.94,198.20"/>
        <lane id=":J168_0_1" index="1" disallow="pedestrian" speed="7.92" length="14.82" shape="-115.31,203.14 -111.53,204.76 -108.23,204.72 -105.41,203.01 -103.07,199.62"/>
    </edge>
    <edge id=":J168_2" function="internal">
        <lane id=":J168_2_0" index="0" disallow="pedestrian" speed="13.89" length="12.32" shape="-111.44,209.28 -105.94,198.20"/>
        <lane id=":J168_2_1" index="1" disallow="pedestrian" speed="13.89" length="12.32" shape="-108.55,210.66 -103.07,199.62"/>
        <lane id=":J168_2_2" index="2" disallow="pedestrian" speed="13.89" length="12.32" shape="-105.67,212.04 -100.21,201.05"/>
    </edge>
    <edge id=":J20_0" function="internal">
        <lane id=":J20_0_0" index="0" disallow="pedestrian" speed="13.89" length="8.60" shape="-189.07,476.36 -191.31,475.34 -193.17,475.36 -195.04,475.40 -197.33,474.44"/>
        <lane id=":J20_0_1" index="1" disallow="pedestrian" speed="13.89" length="8.60" shape="-187.18,473.78 -189.45,472.74 -191.32,472.75 -193.21,472.77 -195.52,471.80"/>
        <lane id=":J20_0_2" index="2" disallow="pedestrian" speed="13.89" length="8.60" shape="-185.29,471.20 -187.58,470.14 -189.47,470.14 -191.38,470.15 -193.72,469.16"/>
        <lane id=":J20_0_3" index="3" disallow="pedestrian" speed="13.89" length="8.60" shape="-185.29,471.20 -191.91,466.52"/>
    </edge>
    <edge id=":J213_0" function="internal">
        <lane id=":J213_0_0" index="0" disallow="pedestrian" speed="6.40" length="7.73" shape="-147.23,174.49 -147.78,176.50 -147.61,178.27 -146.72,179.82 -145.11,181.14"/>
        <lane id=":J213_0_1" index="1" disallow="pedestrian" speed="7.93" length="12.36" shape="-150.18,173.23 -151.05,176.44 -150.78,179.28 -149.36,181.76 -146.78,183.87"/>
    </edge>
    <edge id=":J213_2" function="internal">
        <lane id=":J213_2_0" index="0" disallow="pedestrian" speed="7.08" length="11.86" shape="-150.18,173.23 -152.21,177.36 -154.14,180.03 -155.98,181.23 -157.73,180.98"/>
    </edge>
    <edge id=":J213_3" function="internal">
        <lane id=":J213_3_0" index="0" disallow="pedestrian" speed="13.89" length="11.23" shape="-156.13,178.21 -153.01,179.45 -150.59,179.63 -148.19,179.83 -145.11,181.14"/>
        <lane id=":J213_3_1" index="1" disallow="pedestrian" speed="13.89" length="11.23" shape="-156.13,178.21 -146.78,183.87"/>
    </edge>
    <edge id=":J226_0" function="internal">
        <lane id=":J226_0_0" index="0" disallow="pedestrian" speed="7.37" length="11.75" shape="-71.29,149.87 -73.52,148.21 -74.62,145.95 -74.58,143.11 -73.40,139.68"/>
        <lane id=":J226_0_1" index="1" disallow="pedestrian" speed="6.71" length="9.55" shape="-71.29,149.87 -72.26,148.82 -72.46,147.00 -71.87,144.41 -70.50,141.04"/>
    </edge>
    <edge id=":J226_2" function="internal">
        <lane id=":J226_2_0" index="0" disallow="pedestrian" speed="13.89" length="13.29" shape="-82.05,150.22 -76.29,138.33"/>
        <lane id=":J226_2_1" index="1" disallow="pedestrian" speed="13.89" length="13.29" shape="-79.18,151.65 -73.40,139.68"/>
        <lane id=":J226_2_2" index="2" disallow="pedestrian" speed="13.89" length="13.29" shape="-76.32,153.07 -70.50,141.04"/>
    </edge>
    <edge id=":J226_5" function="internal">
        <lane id=":J226_5_0" index="0" disallow="pedestrian" speed="6.69" length="9.55" shape="-76.32,153.07 -74.53,149.91 -72.86,147.84 -71.32,146.87 -69.89,146.99"/>
    </edge>
    <edge id=":J232_0" function="internal">
        <lane id=":J232_0_0" index="0" disallow="pedestrian" speed="13.89" length="10.04" shape="-238.87,-170.65 -241.10,-172.34 -242.69,-173.41 -244.38,-174.33 -246.87,-175.60"/>
        <lane id=":J232_0_1" index="1" disallow="pedestrian" speed="13.89" length="10.04" shape="-236.90,-173.18 -239.27,-174.98 -240.96,-176.11 -242.76,-177.09 -245.41,-178.45"/>
        <lane id=":J232_0_2" index="2" disallow="pedestrian" speed="13.89" length="10.04" shape="-234.93,-175.70 -237.44,-177.61 -239.24,-178.81 -241.14,-179.86 -243.95,-181.29"/>
    </edge>
    <edge id=":J232_3" function="internal">
        <lane id=":J232_3_0" index="0" disallow="pedestrian" speed="6.64" length="8.99" shape="-244.63,-167.92 -243.90,-170.40 -244.03,-172.51 -245.02,-174.24 -246.87,-175.60"/>
    </edge>
    <edge id=":J234_0" function="internal">
        <lane id=":J234_0_0" index="0" disallow="pedestrian" speed="13.89" length="14.10" shape="-218.74,-155.45 -222.33,-157.77 -224.70,-159.49 -227.00,-161.33 -230.35,-164.00"/>
        <lane id=":J234_0_1" index="1" disallow="pedestrian" speed="13.89" length="14.10" shape="-217.04,-158.16 -220.56,-160.43 -222.87,-162.12 -225.11,-163.92 -228.38,-166.53"/>
        <lane id=":J234_0_2" index="2" disallow="pedestrian" speed="13.89" length="14.10" shape="-215.35,-160.88 -218.78,-163.09 -221.04,-164.74 -223.22,-166.50 -226.41,-169.05"/>
    </edge>
    <edge id=":J234_3" function="internal">
        <lane id=":J234_3_0" index="0" disallow="pedestrian" speed="6.73" length="8.42" shape="-215.35,-160.88 -216.97,-162.27 -217.85,-163.96 -217.98,-165.96 -217.37,-168.25"/>
    </edge>
    <edge id=":J234_4" function="internal">
        <lane id=":J234_4_0" index="0" disallow="pedestrian" speed="8.16" length="11.81" shape="-226.92,-153.67 -226.22,-156.48 -226.56,-159.13 -227.94,-161.64 -230.35,-164.00"/>
        <lane id=":J234_4_1" index="1" disallow="pedestrian" speed="9.42" length="16.03" shape="-223.97,-152.43 -222.98,-156.32 -223.38,-159.96 -225.18,-163.37 -228.38,-166.53"/>
    </edge>
    <edge id=":J234_6" function="internal">
        <lane id=":J234_6_0" index="0" disallow="pedestrian" speed="13.89" length="17.32" shape="-223.97,-152.43 -222.43,-157.33 -222.10,-160.91 -221.80,-164.50 -220.34,-169.44"/>
        <lane id=":J234_6_1" index="1" disallow="pedestrian" speed="13.89" length="17.32" shape="-223.97,-152.43 -217.37,-168.25"/>
    </edge>
    <edge id=":J235_0" function="internal">
        <lane id=":J235_0_0" index="0" disallow="pedestrian" speed="6.31" length="9.77" shape="-115.81,-90.49 -118.29,-91.70 -120.42,-91.72 -122.18,-90.54 -123.58,-88.15"/>
    </edge>
    <edge id=":J235_1" function="internal">
        <lane id=":J235_1_0" index="0" disallow="pedestrian" speed="13.89" length="18.12" shape="-115.81,-90.49 -130.72,-100.56"/>
        <lane id=":J235_1_1" index="1" disallow="pedestrian" speed="13.89" length="18.12" shape="-114.01,-93.13 -129.03,-103.28"/>
        <lane id=":J235_1_2" index="2" disallow="pedestrian" speed="13.89" length="18.12" shape="-112.21,-95.77 -127.33,-105.99"/>
    </edge>
    <edge id=":J235_4" function="internal">
        <lane id=":J235_4_0" index="0" disallow="pedestrian" speed="13.89" length="18.41" shape="-116.61,-105.26 -123.58,-88.15"/>
        <lane id=":J235_4_1" index="1" disallow="pedestrian" speed="13.89" length="18.41" shape="-119.59,-106.42 -126.54,-89.37"/>
        <lane id=":J235_4_2" index="2" disallow="pedestrian" speed="13.89" length="18.41" shape="-122.58,-107.58 -129.50,-90.58"/>
    </edge>
    <edge id=":J235_7" function="internal">
        <lane id=":J235_7_0" index="0" disallow="pedestrian" speed="6.14" length="9.07" shape="-122.58,-107.58 -123.95,-104.79 -125.49,-103.15 -127.18,-102.64 -129.03,-103.28"/>
        <lane id=":J235_7_1" index="1" disallow="pedestrian" speed="5.14" length="6.00" shape="-122.58,-107.58 -123.41,-106.10 -124.48,-105.35 -125.78,-105.31 -127.33,-105.99"/>
    </edge>
    <edge id=":J238_0" function="internal">
        <lane id=":J238_0_0" index="0" disallow="pedestrian" speed="13.89" length="15.47" shape="6.63,-13.07 -6.44,-21.04"/>
        <lane id=":J238_0_1" index="1" disallow="pedestrian" speed="13.89" length="15.47" shape="8.41,-15.73 -4.80,-23.79"/>
        <lane id=":J238_0_2" index="2" disallow="pedestrian" speed="13.89" length="15.47" shape="10.18,-18.40 -3.17,-26.53"/>
    </edge>
    <edge id=":J238_3" function="internal">
        <lane id=":J238_3_0" index="0" disallow="pedestrian" speed="5.95" length="6.71" shape="10.18,-18.40 8.64,-19.69 7.77,-21.06 7.56,-22.51 8.03,-24.05"/>
    </edge>
    <edge id=":J238_4" function="internal">
        <lane id=":J238_4_0" index="0" disallow="pedestrian" speed="6.67" length="9.08" shape="-4.74,-13.14 -3.84,-15.61 -3.82,-17.75 -4.69,-19.56 -6.44,-21.04"/>
        <lane id=":J238_4_1" index="1" disallow="pedestrian" speed="8.14" length="14.00" shape="-1.90,-11.68 -0.55,-15.41 -0.59,-18.68 -2.01,-21.47 -4.80,-23.79"/>
    </edge>
    <edge id=":J238_6" function="internal">
        <lane id=":J238_6_0" index="0" disallow="pedestrian" speed="13.89" length="15.53" shape="0.95,-10.22 8.03,-24.05"/>
    </edge>
    <edge id=":J284_0" function="internal">
        <lane id=":J284_0_0" index="0" disallow="pedestrian" speed="13.89" length="19.25" shape="-63.07,-54.81 -79.27,-65.57"/>
        <lane id=":J284_0_1" index="1" disallow="pedestrian" speed="13.89" length="19.25" shape="-61.43,-57.56 -77.47,-68.22"/>
        <lane id=":J284_0_2" index="2" disallow="pedestrian" speed="13.89" length="19.25" shape="-59.79,-60.31 -75.67,-70.86"/>
    </edge>
    <edge id=":J284_3" function="internal">
        <lane id=":J284_3_0" index="0" disallow="pedestrian" speed="8.52" length="14.96" shape="-59.79,-60.31 -63.94,-63.24 -66.53,-66.15 -67.55,-69.04 -67.00,-71.91"/>
        <lane id=":J284_3_1" index="1" disallow="pedestrian" speed="7.80" length="12.38" shape="-59.79,-60.31 -62.72,-62.54 -64.42,-64.99 -64.88,-67.67 -64.10,-70.57"/>
        <lane id=":J284_3_2" index="2" disallow="pedestrian" speed="7.08" length="10.01" shape="-59.79,-60.31 -61.51,-61.84 -62.31,-63.83 -62.21,-66.29 -61.20,-69.22"/>
    </edge>
    <edge id=":J287_0" function="internal">
        <lane id=":J287_0_0" index="0" disallow="pedestrian" speed="8.11" length="12.59" shape="11.85,-216.80 10.58,-218.48 10.30,-221.00 11.01,-224.36 12.70,-228.55"/>
    </edge>
    <edge id=":J287_1" function="internal">
        <lane id=":J287_1_0" index="0" disallow="pedestrian" speed="6.37" length="9.51" shape="-0.84,-229.12 1.57,-227.99 3.67,-227.97 5.45,-229.08 6.92,-231.29"/>
    </edge>
    <edge id=":J287_2" function="internal">
        <lane id=":J287_2_0" index="0" disallow="pedestrian" speed="13.89" length="16.21" shape="0.02,-216.59 6.92,-231.29"/>
        <lane id=":J287_2_1" index="1" disallow="pedestrian" speed="13.89" length="16.21" shape="2.93,-215.25 9.81,-229.92"/>
        <lane id=":J287_2_2" index="2" disallow="pedestrian" speed="13.89" length="16.21" shape="5.83,-213.90 12.70,-228.55"/>
    </edge>
    <edge id=":J288_0" function="internal">
        <lane id=":J288_0_0" index="0" disallow="pedestrian" speed="6.31" length="9.77" shape="52.77,-343.15 55.24,-341.91 57.36,-341.88 59.14,-343.05 60.56,-345.41"/>
    </edge>
    <edge id=":J288_1" function="internal">
        <lane id=":J288_1_0" index="0" disallow="pedestrian" speed="7.33" length="10.28" shape="54.63,-331.90 55.21,-334.15 54.79,-336.34 53.37,-338.46 50.95,-340.52"/>
    </edge>
    <edge id=":J288_2" function="internal">
        <lane id=":J288_2_0" index="0" disallow="pedestrian" speed="13.89" length="14.91" shape="54.63,-331.90 60.56,-345.41"/>
        <lane id=":J288_2_1" index="1" disallow="pedestrian" speed="13.89" length="14.91" shape="57.52,-330.53 63.51,-344.17"/>
        <lane id=":J288_2_2" index="2" disallow="pedestrian" speed="13.89" length="14.91" shape="60.41,-329.15 66.46,-342.93"/>
    </edge>
    <edge id=":J290_0" function="internal">
        <lane id=":J290_0_0" index="0" disallow="pedestrian" speed="13.89" length="13.53" shape="37.72,-483.25 31.98,-470.92"/>
        <lane id=":J290_0_1" index="1" disallow="pedestrian" speed="13.89" length="13.53" shape="34.80,-484.57 29.09,-472.31"/>
        <lane id=":J290_0_2" index="2" disallow="pedestrian" speed="13.89" length="13.53" shape="31.89,-485.89 26.20,-473.69"/>
    </edge>
    <edge id=":J290_3" function="internal">
        <lane id=":J290_3_0" index="0" disallow="pedestrian" speed="6.60" length="9.88" shape="31.89,-485.89 30.16,-482.63 28.47,-480.56 26.82,-479.67 25.20,-479.96"/>
    </edge>
    <edge id=":J290_4" function="internal">
        <lane id=":J290_4_0" index="0" disallow="pedestrian" speed="7.57" length="12.03" shape="26.75,-482.76 29.08,-480.90 30.24,-478.54 30.25,-475.67 29.09,-472.31"/>
        <lane id=":J290_4_1" index="1" disallow="pedestrian" speed="6.91" length="9.84" shape="26.75,-482.76 27.84,-481.57 28.12,-479.66 27.57,-477.03 26.20,-473.69"/>
    </edge>
    <edge id=":J291_0" function="internal">
        <lane id=":J291_0_0" index="0" disallow="pedestrian" speed="6.28" length="9.91" shape="-4.54,-378.98 -7.06,-380.24 -9.19,-380.26 -10.94,-379.04 -12.31,-376.57"/>
    </edge>
    <edge id=":J291_1" function="internal">
        <lane id=":J291_1_0" index="0" disallow="pedestrian" speed="13.89" length="17.73" shape="-4.54,-378.98 -19.18,-388.98"/>
    </edge>
    <edge id=":J291_2" function="internal">
        <lane id=":J291_2_0" index="0" disallow="pedestrian" speed="7.87" length="12.02" shape="-5.81,-392.05 -6.73,-389.06 -6.53,-386.33 -5.19,-383.84 -2.71,-381.61"/>
    </edge>
    <edge id=":J291_3" function="internal">
        <lane id=":J291_3_0" index="0" disallow="pedestrian" speed="13.89" length="17.05" shape="-5.81,-392.05 -12.31,-376.57"/>
        <lane id=":J291_3_1" index="1" disallow="pedestrian" speed="13.89" length="17.05" shape="-8.70,-393.43 -15.30,-377.71"/>
        <lane id=":J291_3_2" index="2" disallow="pedestrian" speed="13.89" length="17.05" shape="-11.58,-394.81 -18.29,-378.84"/>
    </edge>
    <edge id=":J291_6" function="internal">
        <lane id=":J291_6_0" index="0" disallow="pedestrian" speed="6.79" length="10.75" shape="-11.58,-394.81 -13.52,-391.40 -15.43,-389.29 -17.32,-388.48 -19.18,-388.98"/>
    </edge>
    <edge id=":J291_7" function="internal">
        <lane id=":J291_7_0" index="0" disallow="pedestrian" speed="13.89" length="17.89" shape="-17.49,-391.70 -2.71,-381.61"/>
    </edge>
    <edge id=":J291_8" function="internal">
        <lane id=":J291_8_0" index="0" disallow="pedestrian" speed="8.45" length="1.97" shape="-17.49,-391.70 -16.30,-390.12"/>
    </edge>
    <edge id=":J291_9" function="internal">
        <lane id=":J291_9_0" index="0" disallow="pedestrian" speed="8.45" length="11.61" shape="-16.30,-390.12 -16.04,-387.46 -16.70,-383.70 -18.29,-378.84"/>
    </edge>
    <edge id=":J293_0" function="internal">
        <lane id=":J293_0_0" index="0" disallow="pedestrian" speed="7.61" length="10.63" shape="-52.38,-271.05 -53.16,-268.04 -53.06,-265.45 -52.08,-263.29 -50.21,-261.56"/>
    </edge>
    <edge id=":J293_1" function="internal">
        <lane id=":J293_1_0" index="0" disallow="pedestrian" speed="13.89" length="10.80" shape="-52.38,-271.05 -56.24,-260.95"/>
        <lane id=":J293_1_1" index="1" disallow="pedestrian" speed="13.89" length="10.80" shape="-55.37,-272.19 -59.23,-262.10"/>
        <lane id=":J293_1_2" index="2" disallow="pedestrian" speed="13.89" length="10.80" shape="-58.36,-273.33 -62.21,-263.26"/>
    </edge>
    <edge id=":J293_4" function="internal">
        <lane id=":J293_4_0" index="0" disallow="pedestrian" speed="13.89" length="15.83" shape="-63.51,-270.15 -50.21,-261.56"/>
    </edge>
    <edge id=":J293_5" function="internal">
        <lane id=":J293_5_0" index="0" disallow="pedestrian" speed="7.24" length="9.99" shape="-63.51,-270.15 -60.98,-268.32 -59.43,-266.37 -58.84,-264.29 -59.23,-262.10"/>
        <lane id=":J293_5_1" index="1" disallow="pedestrian" speed="6.43" length="7.69" shape="-63.51,-270.15 -62.21,-269.01 -61.57,-267.48 -61.57,-265.56 -62.21,-263.26"/>
    </edge>
    <edge id=":J294_0" function="internal">
        <lane id=":J294_0_0" index="0" disallow="pedestrian" speed="6.32" length="9.71" shape="-162.74,-329.68 -160.29,-328.45 -158.18,-328.40 -156.39,-329.53 -154.93,-331.85"/>
    </edge>
    <edge id=":J294_1" function="internal">
        <lane id=":J294_1_0" index="0" disallow="pedestrian" speed="13.89" length="13.44" shape="-162.74,-329.68 -151.64,-322.09"/>
    </edge>
    <edge id=":J294_2" function="internal">
        <lane id=":J294_2_0" index="0" disallow="pedestrian" speed="13.89" length="11.06" shape="-159.38,-321.66 -154.93,-331.85"/>
        <lane id=":J294_2_1" index="1" disallow="pedestrian" speed="13.89" length="11.06" shape="-156.41,-320.47 -152.01,-330.54"/>
    </edge>
    <edge id=":J294_4" function="internal">
        <lane id=":J294_4_0" index="0" disallow="pedestrian" speed="5.18" length="5.96" shape="-156.41,-320.47 -155.57,-321.91 -154.50,-322.67 -153.19,-322.73 -151.64,-322.09"/>
    </edge>
    <edge id=":J295_0" function="internal">
        <lane id=":J295_0_0" index="0" disallow="pedestrian" speed="13.89" length="14.23" shape="-99.31,-438.83 -111.33,-446.44"/>
    </edge>
    <edge id=":J295_1" function="internal">
        <lane id=":J295_1_0" index="0" disallow="pedestrian" speed="8.01" length="1.99" shape="-99.31,-438.83 -100.58,-440.35"/>
    </edge>
    <edge id=":J295_8" function="internal">
        <lane id=":J295_8_0" index="0" disallow="pedestrian" speed="8.01" length="10.36" shape="-100.58,-440.35 -100.94,-442.79 -100.39,-446.14 -98.94,-450.40"/>
    </edge>
    <edge id=":J295_2" function="internal">
        <lane id=":J295_2_0" index="0" disallow="pedestrian" speed="6.33" length="9.67" shape="-109.61,-449.14 -107.13,-448.02 -105.02,-448.06 -103.27,-449.25 -101.90,-451.60"/>
    </edge>
    <edge id=":J295_3" function="internal">
        <lane id=":J295_3_0" index="0" disallow="pedestrian" speed="13.89" length="14.20" shape="-109.61,-449.14 -97.62,-441.54"/>
    </edge>
    <edge id=":J295_4" function="internal">
        <lane id=":J295_4_0" index="0" disallow="pedestrian" speed="7.54" length="11.09" shape="-108.10,-436.95 -107.34,-439.72 -107.62,-442.22 -108.95,-444.46 -111.33,-446.44"/>
    </edge>
    <edge id=":J295_5" function="internal">
        <lane id=":J295_5_0" index="0" disallow="pedestrian" speed="13.89" length="15.97" shape="-108.10,-436.95 -101.90,-451.60"/>
        <lane id=":J295_5_1" index="1" disallow="pedestrian" speed="13.89" length="15.97" shape="-105.18,-435.65 -98.94,-450.40"/>
    </edge>
    <edge id=":J295_7" function="internal">
        <lane id=":J295_7_0" index="0" disallow="pedestrian" speed="6.76" length="10.86" shape="-105.18,-435.65 -103.32,-439.13 -101.44,-441.27 -99.54,-442.08 -97.62,-441.54"/>
    </edge>
    <edge id=":J296_0" function="internal">
        <lane id=":J296_0_0" index="0" disallow="pedestrian" speed="7.20" length="10.01" shape="-63.28,-528.95 -64.45,-530.17 -64.87,-532.13 -64.56,-534.83 -63.50,-538.27"/>
    </edge>
    <edge id=":J296_1" function="internal">
        <lane id=":J296_1_0" index="0" disallow="pedestrian" speed="13.89" length="13.41" shape="-71.35,-526.94 -66.50,-539.39"/>
        <lane id=":J296_1_1" index="1" disallow="pedestrian" speed="13.89" length="13.41" shape="-68.38,-525.74 -63.50,-538.27"/>
    </edge>
    <edge id=":J296_3" function="internal">
        <lane id=":J296_3_0" index="0" disallow="pedestrian" speed="6.56" length="10.04" shape="-68.38,-525.74 -66.77,-529.08 -65.12,-531.20 -63.44,-532.09 -61.73,-531.75"/>
    </edge>
    <edge id=":J299_0" function="internal">
        <lane id=":J299_0_0" index="0" disallow="pedestrian" speed="6.50" length="9.04" shape="-64.34,-560.41 -62.00,-559.59 -59.96,-559.71 -58.23,-560.78 -56.79,-562.80"/>
    </edge>
    <edge id=":J299_1" function="internal">
        <lane id=":J299_1_0" index="0" disallow="pedestrian" speed="6.84" length="9.14" shape="-62.51,-550.05 -62.04,-552.34 -62.43,-554.36 -63.69,-556.10 -65.82,-557.57"/>
    </edge>
    <edge id=":J299_2" function="internal">
        <lane id=":J299_2_0" index="0" disallow="pedestrian" speed="13.89" length="13.81" shape="-62.51,-550.05 -61.03,-553.93 -59.93,-556.55 -58.69,-559.11 -56.79,-562.80"/>
        <lane id=":J299_2_1" index="1" disallow="pedestrian" speed="13.89" length="13.81" shape="-59.51,-548.92 -58.08,-552.70 -57.01,-555.25 -55.80,-557.74 -53.95,-561.34"/>
    </edge>
    <edge id=":J30_0" function="internal">
        <lane id=":J30_0_0" index="0" disallow="pedestrian" speed="13.89" length="0.49" shape="-43.34,580.19 -43.55,580.07 -43.69,579.98 -43.83,579.89 -44.03,579.75"/>
        <lane id=":J30_0_1" index="1" disallow="pedestrian" speed="13.89" length="0.49" shape="-41.77,577.40 -41.89,577.33 -41.98,577.28 -42.06,577.22 -42.18,577.14"/>
        <lane id=":J30_0_2" index="2" disallow="pedestrian" speed="13.89" length="0.49" shape="-40.20,574.61 -40.24,574.59 -40.27,574.57 -40.29,574.55 -40.33,574.53"/>
    </edge>
    <edge id=":J31_0" function="internal">
        <lane id=":J31_0_0" index="0" disallow="pedestrian" speed="7.93" length="9.83" shape="97.64,669.91 95.56,669.43 93.41,669.76 91.17,670.88 88.85,672.81"/>
    </edge>
    <edge id=":J31_1" function="internal">
        <lane id=":J31_1_0" index="0" disallow="pedestrian" speed="13.89" length="13.16" shape="97.64,669.91 93.93,668.17 91.53,666.69 89.28,664.97 86.00,662.48"/>