<?xml version="1.0" encoding="UTF-8"?>

<!-- generated on 2025-08-25 22:37:13 by Eclipse SUMO netgenerate Version 1.23.1
<netgenerateConfiguration xmlns:xsi="http://www.w3.org/2001/XMLSchema-instance" xsi:noNamespaceSchemaLocation="http://sumo.dlr.de/xsd/netgenerateConfiguration.xsd">

    <spider_network>
        <spider value="true"/>
        <spider.arm-number value="7"/>
        <spider.circle-number value="3"/>
        <spider.space-radius value="30"/>
    </spider_network>

    <output>
        <output-file value="D:\DLSU\new_thesis\TricycleABM\maps\net.net.xml"/>
    </output>

</netgenerateConfiguration>
-->

<net version="1.20" junctionCornerDetail="5" limitTurnSpeed="5.50" xmlns:xsi="http://www.w3.org/2001/XMLSchema-instance" xsi:noNamespaceSchemaLocation="http://sumo.dlr.de/xsd/net_file.xsd">

    <location netOffset="81.09,87.74" convBoundary="0.00,0.00,171.09,175.49" origBoundary="-81.09,-87.74,90.00,87.74" projParameter="!"/>

    <edge id=":A1_0" function="internal">
        <lane id=":A1_0_0" index="0" speed="5.54" length="9.46" shape="86.47,97.06 84.37,95.01 82.64,94.55 81.28,95.71 80.28,98.48"/>
    </edge>
    <edge id=":A1_1" function="internal">
        <lane id=":A1_1_0" index="0" speed="9.25" length="16.00" shape="86.47,97.06 83.39,94.11 79.98,92.59 76.25,92.48 72.19,93.80"/>
    </edge>
    <edge id=":A1_2" function="internal">
        <lane id=":A1_2_0" index="0" speed="13.89" length="20.14" shape="86.47,97.06 83.34,93.77 79.16,90.16 74.71,86.88 70.80,84.57"/>
    </edge>
    <edge id=":A1_3" function="internal">
        <lane id=":A1_3_0" index="0" speed="13.89" length="21.56" shape="86.47,97.06 83.86,93.08 81.06,87.75 78.65,82.25 77.16,77.72"/>
    </edge>
    <edge id=":A1_4" function="internal">
        <lane id=":A1_4_0" index="0" speed="10.38" length="20.36" shape="86.47,97.06 83.69,92.40 82.76,87.74 83.69,83.08 86.47,78.42"/>
    </edge>
    <edge id=":A1_5" function="internal">
        <lane id=":A1_5_0" index="0" speed="6.53" length="13.76" shape="86.47,97.06 85.66,94.02 86.64,90.42 88.85,87.41 91.73,86.14"/>
    </edge>
    <edge id=":A1_6" function="internal">
        <lane id=":A1_6_0" index="0" speed="3.65" length="4.67" shape="86.47,97.06 86.35,95.63 86.73,94.82 87.60,94.63 88.98,95.07"/>
    </edge>
    <edge id=":A1_7" function="internal">
        <lane id=":A1_7_0" index="0" speed="5.54" length="9.46" shape="91.73,89.34 88.81,89.70 87.38,90.77 87.44,92.56 88.98,95.07"/>
    </edge>
    <edge id=":A1_8" function="internal">
        <lane id=":A1_8_0" index="0" speed="9.25" length="16.00" shape="91.73,89.34 87.50,89.91 84.18,91.63 81.78,94.48 80.28,98.48"/>
    </edge>
    <edge id=":A1_9" function="internal">
        <lane id=":A1_9_0" index="0" speed="13.89" length="20.14" shape="91.73,89.34 87.20,89.74 81.78,90.76 76.44,92.19 72.19,93.80"/>
    </edge>
    <edge id=":A1_10" function="internal">
        <lane id=":A1_10_0" index="0" speed="13.89" length="21.56" shape="91.73,89.34 86.99,88.90 81.08,87.77 75.27,86.23 70.80,84.57"/>
    </edge>
    <edge id=":A1_11" function="internal">
        <lane id=":A1_11_0" index="0" speed="10.38" length="20.36" shape="91.73,89.34 86.35,88.62 82.13,86.44 79.06,82.81 77.16,77.72"/>
    </edge>
    <edge id=":A1_12" function="internal">
        <lane id=":A1_12_0" index="0" speed="6.53" length="13.76" shape="91.73,89.34 88.85,88.08 86.64,85.07 85.66,81.46 86.47,78.42"/>
    </edge>
    <edge id=":A1_13" function="internal">
        <lane id=":A1_13_0" index="0" speed="3.65" length="4.67" shape="91.73,89.34 90.53,88.54 90.13,87.74 90.53,86.94 91.73,86.14"/>
    </edge>
    <edge id=":A1_14" function="internal">
        <lane id=":A1_14_0" index="0" speed="5.54" length="9.46" shape="88.98,80.42 87.44,82.92 87.38,84.71 88.81,85.79 91.73,86.14"/>
    </edge>
    <edge id=":A1_15" function="internal">
        <lane id=":A1_15_0" index="0" speed="9.25" length="16.00" shape="88.98,80.42 86.78,84.08 86.05,87.74 86.78,91.41 88.98,95.07"/>
    </edge>
    <edge id=":A1_16" function="internal">
        <lane id=":A1_16_0" index="0" speed="13.89" length="20.14" shape="88.98,80.42 86.46,84.20 83.87,89.09 81.67,94.15 80.28,98.48"/>
    </edge>
    <edge id=":A1_17" function="internal">
        <lane id=":A1_17_0" index="0" speed="13.89" length="21.56" shape="88.98,80.42 85.67,83.85 81.10,87.76 76.28,91.35 72.19,93.80"/>
    </edge>
    <edge id=":A1_18" function="internal">
        <lane id=":A1_18_0" index="0" speed="10.38" length="20.36" shape="88.98,80.42 85.05,84.17 80.72,86.12 75.97,86.25 70.80,84.57"/>
    </edge>
    <edge id=":A1_19" function="internal">
        <lane id=":A1_19_0" index="0" speed="6.53" length="13.76" shape="88.98,80.42 86.19,81.88 82.46,81.73 79.03,80.25 77.16,77.72"/>
    </edge>
    <edge id=":A1_20" function="internal">
        <lane id=":A1_20_0" index="0" speed="3.65" length="4.67" shape="88.98,80.42 87.60,80.86 86.73,80.67 86.35,79.86 86.47,78.42"/>
    </edge>
    <edge id=":A1_21" function="internal">
        <lane id=":A1_21_0" index="0" speed="5.54" length="9.46" shape="80.28,77.01 81.28,79.77 82.64,80.93 84.37,80.48 86.47,78.42"/>
    </edge>
    <edge id=":A1_22" function="internal">
        <lane id=":A1_22_0" index="0" speed="9.25" length="16.00" shape="80.28,77.01 81.78,81.01 84.18,83.86 87.50,85.57 91.73,86.14"/>
    </edge>
    <edge id=":A1_23" function="internal">
        <lane id=":A1_23_0" index="0" speed="13.89" length="20.14" shape="80.28,77.01 81.67,81.34 83.87,86.40 86.46,91.28 88.98,95.07"/>
    </edge>
    <edge id=":A1_24" function="internal">
        <lane id=":A1_24_0" index="0" speed="13.89" length="21.56" shape="80.28,77.01 80.90,81.73 81.11,87.74 80.90,93.75 80.28,98.48"/>
    </edge>
    <edge id=":A1_25" function="internal">
        <lane id=":A1_25_0" index="0" speed="10.38" length="20.36" shape="80.28,77.01 80.77,82.42 79.58,87.02 76.72,90.81 72.19,93.80"/>
    </edge>
    <edge id=":A1_26" function="internal">
        <lane id=":A1_26_0" index="0" speed="6.53" length="13.76" shape="80.28,77.01 79.69,80.10 77.24,82.92 73.94,84.68 70.80,84.57"/>
    </edge>
    <edge id=":A1_27" function="internal">
        <lane id=":A1_27_0" index="0" speed="3.65" length="4.67" shape="80.28,77.01 79.77,78.36 79.07,78.93 78.21,78.71 77.16,77.72"/>
    </edge>
    <edge id=":A1_28" function="internal">
        <lane id=":A1_28_0" index="0" speed="5.54" length="9.46" shape="72.19,81.68 74.98,82.63 76.73,82.28 77.46,80.65 77.16,77.72"/>
    </edge>
    <edge id=":A1_29" function="internal">
        <lane id=":A1_29_0" index="0" speed="9.25" length="16.00" shape="72.19,81.68 76.25,83.00 79.98,82.90 83.39,81.37 86.47,78.42"/>
    </edge>
    <edge id=":A1_30" function="internal">
        <lane id=":A1_30_0" index="0" speed="13.89" length="20.14" shape="72.19,81.68 76.44,83.30 81.78,84.73 87.20,85.75 91.73,86.14"/>
    </edge>
    <edge id=":A1_31" function="internal">
        <lane id=":A1_31_0" index="0" speed="13.89" length="21.56" shape="72.19,81.68 76.28,84.14 81.10,87.72 85.67,91.63 88.98,95.07"/>
    </edge>
    <edge id=":A1_32" function="internal">
        <lane id=":A1_32_0" index="0" speed="10.38" length="20.36" shape="72.19,81.68 76.72,84.67 79.58,88.47 80.77,93.07 80.28,98.48"/>
    </edge>
    <edge id=":A1_33" function="internal">
        <lane id=":A1_33_0" index="0" speed="6.53" length="13.76" shape="72.19,81.68 74.24,84.07 74.92,87.74 74.24,91.42 72.19,93.80"/>
    </edge>
    <edge id=":A1_34" function="internal">
        <lane id=":A1_34_0" index="0" speed="3.65" length="4.67" shape="72.19,81.68 72.92,82.92 72.94,83.82 72.23,84.37 70.80,84.57"/>
    </edge>
    <edge id=":A1_35" function="internal">
        <lane id=":A1_35_0" index="0" speed="5.54" length="9.46" shape="70.80,90.92 73.28,89.33 74.10,87.74 73.28,86.15 70.80,84.57"/>
    </edge>
    <edge id=":A1_36" function="internal">
        <lane id=":A1_36_0" index="0" speed="9.25" length="16.00" shape="70.80,90.92 74.36,88.57 76.61,85.59 77.54,81.97 77.16,77.72"/>
    </edge>
    <edge id=":A1_37" function="internal">
        <lane id=":A1_37_0" index="0" speed="13.89" length="20.14" shape="70.80,90.92 74.71,88.60 79.16,85.32 83.34,81.72 86.47,78.42"/>
    </edge>
    <edge id=":A1_38" function="internal">
        <lane id=":A1_38_0" index="0" speed="13.89" length="21.56" shape="70.80,90.92 75.27,89.26 81.08,87.72 86.99,86.58 91.73,86.14"/>
    </edge>
    <edge id=":A1_39" function="internal">
        <lane id=":A1_39_0" index="0" speed="10.38" length="20.36" shape="70.80,90.92 75.97,89.24 80.72,89.37 85.05,91.31 88.98,95.07"/>
    </edge>
    <edge id=":A1_40" function="internal">
        <lane id=":A1_40_0" index="0" speed="6.53" length="13.76" shape="70.80,90.92 73.94,90.81 77.24,92.56 79.69,95.39 80.28,98.48"/>
    </edge>
    <edge id=":A1_41" function="internal">
        <lane id=":A1_41_0" index="0" speed="3.65" length="4.67" shape="70.80,90.92 72.23,91.12 72.94,91.67 72.92,92.56 72.19,93.80"/>
    </edge>
    <edge id=":A1_42" function="internal">
        <lane id=":A1_42_0" index="0" speed="5.54" length="9.46" shape="77.16,97.77 77.46,94.84 76.73,93.21 74.98,92.86 72.19,93.80"/>
    </edge>
    <edge id=":A1_43" function="internal">
        <lane id=":A1_43_0" index="0" speed="9.25" length="16.00" shape="77.16,97.77 77.54,93.52 76.61,89.90 74.36,86.92 70.80,84.57"/>
    </edge>
    <edge id=":A1_44" function="internal">
        <lane id=":A1_44_0" index="0" speed="13.89" length="20.14" shape="77.16,97.77 77.78,93.26 77.99,87.74 77.78,82.22 77.16,77.72"/>
    </edge>
    <edge id=":A1_45" function="internal">
        <lane id=":A1_45_0" index="0" speed="13.89" length="21.56" shape="77.16,97.77 78.65,93.24 81.06,87.73 83.86,82.41 86.47,78.42"/>
    </edge>
    <edge id=":A1_46" function="internal">
        <lane id=":A1_46_0" index="0" speed="10.38" length="20.36" shape="77.16,97.77 79.06,92.68 82.13,89.05 86.35,86.87 91.73,86.14"/>
    </edge>
    <edge id=":A1_47" function="internal">
        <lane id=":A1_47_0" index="0" speed="6.53" length="13.76" shape="77.16,97.77 79.03,95.24 82.46,93.76 86.19,93.60 88.98,95.07"/>
    </edge>
    <edge id=":A1_48" function="internal">
        <lane id=":A1_48_0" index="0" speed="3.65" length="4.67" shape="77.16,97.77 78.21,96.77 79.07,96.56 79.77,97.13 80.28,98.48"/>
    </edge>
    <edge id=":B1_0" function="internal">
        <lane id=":B1_0_0" index="0" speed="8.94" length="11.80" shape="117.10,89.34 114.69,89.80 112.47,91.17 110.43,93.44 108.58,96.63"/>
    </edge>
    <edge id=":B1_1" function="internal">
        <lane id=":B1_1_0" index="0" speed="13.89" length="15.10" shape="117.10,89.34 101.99,89.34"/>
    </edge>
    <edge id=":B1_2" function="internal">
        <lane id=":B1_2_0" index="0" speed="10.14" length="3.58" shape="117.10,89.34 113.75,88.77 113.59,88.68"/>
    </edge>
    <edge id=":B1_3" function="internal">
        <lane id=":B1_3_0" index="0" speed="3.65" length="1.44" shape="117.10,89.34 115.90,88.54"/>
    </edge>
    <edge id=":B1_16" function="internal">
        <lane id=":B1_16_0" index="0" speed="10.14" length="11.81" shape="113.59,88.68 110.74,87.07 108.06,84.23 105.70,80.25"/>
    </edge>
    <edge id=":B1_17" function="internal">
        <lane id=":B1_17_0" index="0" speed="3.65" length="3.23" shape="115.90,88.54 115.50,87.74 115.90,86.94 117.10,86.14"/>
    </edge>
    <edge id=":B1_4" function="internal">
        <lane id=":B1_4_0" index="0" speed="8.94" length="11.80" shape="108.58,78.86 110.43,82.04 112.47,84.32 114.69,85.69 117.10,86.14"/>
    </edge>
    <edge id=":B1_5" function="internal">
        <lane id=":B1_5_0" index="0" speed="12.79" length="18.40" shape="108.58,78.86 110.19,83.30 110.72,87.74 110.19,92.19 108.58,96.63"/>
    </edge>
    <edge id=":B1_6" function="internal">
        <lane id=":B1_6_0" index="0" speed="7.44" length="16.31" shape="108.58,78.86 110.07,83.44 109.46,86.72 106.77,88.69 101.99,89.34"/>
    </edge>
    <edge id=":B1_7" function="internal">
        <lane id=":B1_7_0" index="0" speed="3.65" length="4.67" shape="108.58,78.86 108.38,80.29 107.84,80.99 106.94,80.98 105.70,80.25"/>
    </edge>
    <edge id=":B1_8" function="internal">
        <lane id=":B1_8_0" index="0" speed="5.75" length="9.17" shape="101.99,86.14 104.68,85.77 106.19,84.67 106.53,82.83 105.70,80.25"/>
    </edge>
    <edge id=":B1_9" function="internal">
        <lane id=":B1_9_0" index="0" speed="13.89" length="15.10" shape="101.99,86.14 117.10,86.14"/>
    </edge>
    <edge id=":B1_10" function="internal">
        <lane id=":B1_10_0" index="0" speed="7.44" length="4.82" shape="101.99,86.14 106.77,86.80"/>
    </edge>
    <edge id=":B1_11" function="internal">
        <lane id=":B1_11_0" index="0" speed="3.65" length="1.44" shape="101.99,86.14 103.19,86.94"/>
    </edge>
    <edge id=":B1_18" function="internal">
        <lane id=":B1_18_0" index="0" speed="7.44" length="11.49" shape="106.77,86.80 109.46,88.77 110.07,92.04 108.58,96.63"/>
    </edge>
    <edge id=":B1_19" function="internal">
        <lane id=":B1_19_0" index="0" speed="3.65" length="3.23" shape="103.19,86.94 103.59,87.74 103.19,88.54 101.99,89.34"/>
    </edge>
    <edge id=":B1_12" function="internal">
        <lane id=":B1_12_0" index="0" speed="5.75" length="9.17" shape="105.70,95.24 106.53,92.66 106.19,90.82 104.68,89.71 101.99,89.34"/>
    </edge>
    <edge id=":B1_13" function="internal">
        <lane id=":B1_13_0" index="0" speed="11.78" length="15.52" shape="105.70,95.24 107.05,91.49 107.51,87.74 107.05,83.99 105.70,80.25"/>
    </edge>
    <edge id=":B1_14" function="internal">
        <lane id=":B1_14_0" index="0" speed="10.14" length="15.39" shape="105.70,95.24 108.06,91.26 110.74,88.42 113.75,86.71 117.10,86.14"/>
    </edge>
    <edge id=":B1_15" function="internal">
        <lane id=":B1_15_0" index="0" speed="3.65" length="4.67" shape="105.70,95.24 106.94,94.51 107.84,94.49 108.38,95.20 108.58,96.63"/>
    </edge>
    <edge id=":B2_0" function="internal">
        <lane id=":B2_0_0" index="0" speed="8.94" length="11.80" shape="102.29,116.90 100.43,115.30 97.98,114.41 94.93,114.24 91.28,114.78"/>
    </edge>
    <edge id=":B2_1" function="internal">
        <lane id=":B2_1_0" index="0" speed="13.89" length="15.10" shape="102.29,116.90 92.87,105.09"/>
    </edge>
    <edge id=":B2_2" function="internal">
        <lane id=":B2_2_0" index="0" speed="10.14" length="3.58" shape="102.29,116.90 100.65,113.93 100.62,113.74"/>
    </edge>
    <edge id=":B2_3" function="internal">
        <lane id=":B2_3_0" index="0" speed="3.65" length="1.44" shape="102.29,116.90 102.17,115.46"/>
    </edge>
    <edge id=":B2_16" function="internal">
        <lane id=":B2_16_0" index="0" speed="10.14" length="11.81" shape="100.62,113.74 100.10,110.51 100.65,106.64 102.30,102.31"/>
    </edge>
    <edge id=":B2_17" function="internal">
        <lane id=":B2_17_0" index="0" speed="3.65" length="3.23" shape="102.17,115.46 102.54,114.65 103.42,114.46 104.79,114.90"/>
    </edge>
    <edge id=":B2_4" function="internal">
        <lane id=":B2_4_0" index="0" speed="8.94" length="11.80" shape="105.18,103.70 103.84,107.13 103.33,110.14 103.64,112.73 104.79,114.90"/>
    </edge>
    <edge id=":B2_5" function="internal">
        <lane id=":B2_5_0" index="0" speed="12.79" length="18.40" shape="105.18,103.70 102.71,107.73 99.57,110.91 95.76,113.27 91.28,114.78"/>
    </edge>
    <edge id=":B2_6" function="internal">
        <lane id=":B2_6_0" index="0" speed="7.44" length="16.31" shape="105.18,103.70 102.52,107.72 99.58,109.29 96.36,108.41 92.87,105.09"/>
    </edge>
    <edge id=":B2_7" function="internal">
        <lane id=":B2_7_0" index="0" speed="3.65" length="4.67" shape="105.18,103.70 103.94,104.43 103.04,104.45 102.50,103.74 102.30,102.31"/>
    </edge>
    <edge id=":B2_8" function="internal">
        <lane id=":B2_8_0" index="0" speed="5.75" length="9.17" shape="95.37,103.09 97.34,104.96 99.14,105.46 100.80,104.57 102.30,102.31"/>
    </edge>
    <edge id=":B2_9" function="internal">
        <lane id=":B2_9_0" index="0" speed="13.89" length="15.10" shape="95.37,103.09 104.79,114.90"/>
    </edge>
    <edge id=":B2_10" function="internal">
        <lane id=":B2_10_0" index="0" speed="7.44" length="4.82" shape="95.37,103.09 97.84,107.23"/>
    </edge>
    <edge id=":B2_11" function="internal">
        <lane id=":B2_11_0" index="0" speed="3.65" length="1.44" shape="95.37,103.09 95.50,104.53"/>
    </edge>
    <edge id=":B2_18" function="internal">
        <lane id=":B2_18_0" index="0" speed="7.44" length="11.49" shape="97.84,107.23 97.98,110.56 95.79,113.08 91.28,114.78"/>
    </edge>
    <edge id=":B2_19" function="internal">
        <lane id=":B2_19_0" index="0" speed="3.65" length="3.23" shape="95.50,104.53 95.12,105.34 94.25,105.53 92.87,105.09"/>
    </edge>
    <edge id=":B2_12" function="internal">
        <lane id=":B2_12_0" index="0" speed="5.75" length="9.17" shape="90.57,111.66 93.11,110.70 94.34,109.29 94.26,107.42 92.87,105.09"/>
    </edge>
    <edge id=":B2_13" function="internal">
        <lane id=":B2_13_0" index="0" speed="11.78" length="15.52" shape="90.57,111.66 94.35,110.38 97.56,108.40 100.21,105.71 102.30,102.31"/>
    </edge>
    <edge id=":B2_14" function="internal">
        <lane id=":B2_14_0" index="0" speed="10.14" length="15.39" shape="90.57,111.66 95.15,111.02 99.05,111.35 102.26,112.64 104.79,114.90"/>
    </edge>
    <edge id=":B2_15" function="internal">
        <lane id=":B2_15_0" index="0" speed="3.65" length="4.67" shape="90.57,111.66 91.92,112.17 92.49,112.87 92.28,113.73 91.28,114.78"/>
    </edge>
    <edge id=":B3_0" function="internal">
        <lane id=":B3_0_0" index="0" speed="8.94" length="11.80" shape="83.63,116.53 80.11,117.62 77.44,119.10 75.61,120.96 74.63,123.21"/>
    </edge>
    <edge id=":B3_1" function="internal">
        <lane id=":B3_1_0" index="0" speed="12.79" length="18.40" shape="83.63,116.53 78.94,117.10 74.49,116.64 70.28,115.13 66.30,112.57"/>
    </edge>
    <edge id=":B3_2" function="internal">
        <lane id=":B3_2_0" index="0" speed="7.44" length="16.31" shape="83.63,116.53 78.83,116.95 75.77,115.63 74.45,112.57 74.88,107.77"/>
    </edge>
    <edge id=":B3_3" function="internal">
        <lane id=":B3_3_0" index="0" speed="3.65" length="4.67" shape="83.63,116.53 82.28,116.01 81.72,115.32 81.93,114.46 82.92,113.41"/>
    </edge>
    <edge id=":B3_4" function="internal">
        <lane id=":B3_4_0" index="0" speed="5.75" length="9.17" shape="77.99,108.48 77.76,111.18 78.50,112.91 80.22,113.65 82.92,113.41"/>
    </edge>
    <edge id=":B3_5" function="internal">
        <lane id=":B3_5_0" index="0" speed="13.89" length="15.10" shape="77.99,108.48 74.63,123.21"/>
    </edge>
    <edge id=":B3_6" function="internal">
        <lane id=":B3_6_0" index="0" speed="7.44" length="4.82" shape="77.99,108.48 76.29,112.99"/>
    </edge>
    <edge id=":B3_7" function="internal">
        <lane id=":B3_7_0" index="0" speed="3.65" length="1.44" shape="77.99,108.48 76.95,109.47"/>
    </edge>
    <edge id=":B3_16" function="internal">
        <lane id=":B3_16_0" index="0" speed="7.44" length="11.49" shape="76.29,112.99 73.78,115.18 70.45,115.04 66.30,112.57"/>
    </edge>
    <edge id=":B3_17" function="internal">
        <lane id=":B3_17_0" index="0" speed="3.65" length="3.23" shape="76.95,109.47 76.08,109.69 75.39,109.12 74.88,107.77"/>
    </edge>
    <edge id=":B3_8" function="internal">
        <lane id=":B3_8_0" index="0" speed="5.75" length="9.17" shape="68.30,110.07 70.63,111.46 72.50,111.54 73.92,110.31 74.88,107.77"/>
    </edge>
    <edge id=":B3_9" function="internal">
        <lane id=":B3_9_0" index="0" speed="11.78" length="15.52" shape="68.30,110.07 71.65,112.23 75.21,113.50 78.96,113.89 82.92,113.41"/>
    </edge>
    <edge id=":B3_10" function="internal">
        <lane id=":B3_10_0" index="0" speed="10.14" length="15.39" shape="68.30,110.07 71.66,113.25 73.83,116.50 74.82,119.82 74.63,123.21"/>
    </edge>
    <edge id=":B3_11" function="internal">
        <lane id=":B3_11_0" index="0" speed="3.65" length="4.67" shape="68.30,110.07 68.74,111.44 68.55,112.32 67.74,112.70 66.30,112.57"/>
    </edge>
    <edge id=":B3_12" function="internal">
        <lane id=":B3_12_0" index="0" speed="8.94" length="11.80" shape="71.51,122.50 71.61,120.05 70.77,117.57 69.00,115.08 66.30,112.57"/>
    </edge>
    <edge id=":B3_13" function="internal">
        <lane id=":B3_13_0" index="0" speed="13.89" length="15.10" shape="71.51,122.50 74.88,107.77"/>
    </edge>
    <edge id=":B3_14" function="internal">
        <lane id=":B3_14_0" index="0" speed="10.14" length="3.58" shape="71.51,122.50 72.81,119.36 72.94,119.22"/>
    </edge>
    <edge id=":B3_15" function="internal">
        <lane id=":B3_15_0" index="0" speed="3.65" length="1.44" shape="71.51,122.50 72.56,121.50"/>
    </edge>
    <edge id=":B3_18" function="internal">
        <lane id=":B3_18_0" index="0" speed="10.14" length="11.81" shape="72.94,119.22 75.15,116.80 78.52,114.82 82.92,113.41"/>
    </edge>
    <edge id=":B3_19" function="internal">
        <lane id=":B3_19_0" index="0" speed="3.65" length="3.23" shape="72.56,121.50 73.43,121.29 74.12,121.86 74.63,123.21"/>
    </edge>
    <edge id=":B4_0" function="internal">
        <lane id=":B4_0_0" index="0" speed="8.94" length="11.80" shape="60.17,107.68 57.12,105.61 54.30,104.44 51.71,104.17 49.34,104.81"/>
    </edge>
    <edge id=":B4_1" function="internal">
        <lane id=":B4_1_0" index="0" speed="12.79" length="18.40" shape="60.17,107.68 56.80,104.37 54.39,100.60 52.94,96.37 52.46,91.67"/>
    </edge>
    <edge id=":B4_2" function="internal">
        <lane id=":B4_2_0" index="0" speed="7.44" length="16.31" shape="60.17,107.68 56.84,104.19 55.97,100.98 57.54,98.04 61.56,95.37"/>
    </edge>
    <edge id=":B4_3" function="internal">
        <lane id=":B4_3_0" index="0" speed="3.65" length="4.67" shape="60.17,107.68 59.73,106.31 59.92,105.43 60.73,105.06 62.16,105.18"/>
    </edge>
    <edge id=":B4_4" function="internal">
        <lane id=":B4_4_0" index="0" speed="5.75" length="9.17" shape="62.94,98.26 60.68,99.75 59.80,101.41 60.29,103.22 62.16,105.18"/>
    </edge>
    <edge id=":B4_5" function="internal">
        <lane id=":B4_5_0" index="0" speed="13.89" length="15.10" shape="62.94,98.26 49.34,104.81"/>
    </edge>
    <edge id=":B4_6" function="internal">
        <lane id=":B4_6_0" index="0" speed="7.44" length="4.82" shape="62.94,98.26 58.36,99.74"/>
    </edge>
    <edge id=":B4_7" function="internal">
        <lane id=":B4_7_0" index="0" speed="3.65" length="1.44" shape="62.94,98.26 61.52,98.06"/>
    </edge>
    <edge id=":B4_16" function="internal">
        <lane id=":B4_16_0" index="0" speed="7.44" length="11.49" shape="58.36,99.74 55.08,99.13 53.11,96.44 52.46,91.67"/>
    </edge>
    <edge id=":B4_17" function="internal">
        <lane id=":B4_17_0" index="0" speed="3.65" length="3.23" shape="61.52,98.06 60.81,97.51 60.82,96.61 61.56,95.37"/>
    </edge>
    <edge id=":B4_8" function="internal">
        <lane id=":B4_8_0" index="0" speed="5.75" length="9.17" shape="55.66,91.67 56.03,94.35 57.13,95.87 58.98,96.21 61.56,95.37"/>
    </edge>
    <edge id=":B4_9" function="internal">
        <lane id=":B4_9_0" index="0" speed="11.78" length="15.52" shape="55.66,91.67 56.06,95.63 57.28,99.21 59.32,102.39 62.16,105.18"/>
    </edge>
    <edge id=":B4_10" function="internal">
        <lane id=":B4_10_0" index="0" speed="10.14" length="15.39" shape="55.66,91.67 55.26,96.28 54.08,100.00 52.10,102.85 49.34,104.81"/>
    </edge>
    <edge id=":B4_11" function="internal">
        <lane id=":B4_11_0" index="0" speed="3.65" length="4.67" shape="55.66,91.67 54.86,92.87 54.06,93.27 53.26,92.87 52.46,91.67"/>
    </edge>
    <edge id=":B4_12" function="internal">
        <lane id=":B4_12_0" index="0" speed="8.94" length="11.80" shape="47.95,101.93 49.92,100.47 51.33,98.28 52.18,95.34 52.46,91.67"/>
    </edge>
    <edge id=":B4_13" function="internal">
        <lane id=":B4_13_0" index="0" speed="13.89" length="15.10" shape="47.95,101.93 61.56,95.37"/>
    </edge>
    <edge id=":B4_14" function="internal">
        <lane id=":B4_14_0" index="0" speed="10.14" length="3.58" shape="47.95,101.93 51.21,100.99 51.40,101.00"/>
    </edge>
    <edge id=":B4_15" function="internal">
        <lane id=":B4_15_0" index="0" speed="3.65" length="1.44" shape="47.95,101.93 49.38,102.13"/>
    </edge>
    <edge id=":B4_18" function="internal">
        <lane id=":B4_18_0" index="0" speed="10.14" length="11.81" shape="51.40,101.00 54.66,101.22 58.32,102.61 62.16,105.18"/>
    </edge>
    <edge id=":B4_19" function="internal">
        <lane id=":B4_19_0" index="0" speed="3.65" length="3.23" shape="49.38,102.13 50.08,102.67 50.07,103.57 49.34,104.81"/>
    </edge>
    <edge id=":B5_0" function="internal">
        <lane id=":B5_0_0" index="0" speed="8.94" length="11.80" shape="52.46,83.82 52.18,80.15 51.33,77.21 49.92,75.02 47.95,73.56"/>
    </edge>
    <edge id=":B5_1" function="internal">
        <lane id=":B5_1_0" index="0" speed="12.79" length="18.40" shape="52.46,83.82 52.94,79.12 54.39,74.88 56.80,71.11 60.17,67.81"/>
    </edge>
    <edge id=":B5_2" function="internal">
        <lane id=":B5_2_0" index="0" speed="7.44" length="16.31" shape="52.46,83.82 53.11,79.04 55.08,76.35 58.36,75.75 62.94,77.23"/>
    </edge>
    <edge id=":B5_3" function="internal">
        <lane id=":B5_3_0" index="0" speed="3.65" length="4.67" shape="52.46,83.82 53.26,82.62 54.06,82.22 54.86,82.62 55.66,83.82"/>
    </edge>
    <edge id=":B5_4" function="internal">
        <lane id=":B5_4_0" index="0" speed="5.75" length="9.17" shape="61.56,80.11 58.98,79.28 57.13,79.62 56.03,81.13 55.66,83.82"/>
    </edge>
    <edge id=":B5_5" function="internal">
        <lane id=":B5_5_0" index="0" speed="13.89" length="15.10" shape="61.56,80.11 47.95,73.56"/>
    </edge>
    <edge id=":B5_6" function="internal">
        <lane id=":B5_6_0" index="0" speed="7.44" length="4.82" shape="61.56,80.11 57.54,77.45"/>
    </edge>
    <edge id=":B5_7" function="internal">
        <lane id=":B5_7_0" index="0" speed="3.65" length="1.44" shape="61.56,80.11 60.82,78.87"/>
    </edge>
    <edge id=":B5_16" function="internal">
        <lane id=":B5_16_0" index="0" speed="7.44" length="11.49" shape="57.54,77.45 55.97,74.51 56.84,71.30 60.17,67.81"/>
    </edge>
    <edge id=":B5_17" function="internal">
        <lane id=":B5_17_0" index="0" speed="3.65" length="3.23" shape="60.82,78.87 60.81,77.98 61.52,77.43 62.94,77.23"/>
    </edge>
    <edge id=":B5_8" function="internal">
        <lane id=":B5_8_0" index="0" speed="5.75" length="9.17" shape="62.16,70.31 60.29,72.27 59.80,74.08 60.68,75.73 62.94,77.23"/>
    </edge>
    <edge id=":B5_9" function="internal">
        <lane id=":B5_9_0" index="0" speed="11.78" length="15.52" shape="62.16,70.31 59.32,73.10 57.28,76.28 56.06,79.85 55.66,83.82"/>
    </edge>
    <edge id=":B5_10" function="internal">
        <lane id=":B5_10_0" index="0" speed="10.14" length="15.39" shape="62.16,70.31 58.32,72.87 54.66,74.27 51.21,74.50 47.95,73.56"/>
    </edge>
    <edge id=":B5_11" function="internal">
        <lane id=":B5_11_0" index="0" speed="3.65" length="4.67" shape="62.16,70.31 60.73,70.43 59.92,70.06 59.73,69.18 60.17,67.81"/>
    </edge>
    <edge id=":B5_12" function="internal">
        <lane id=":B5_12_0" index="0" speed="8.94" length="11.80" shape="49.34,70.68 51.71,71.31 54.30,71.05 57.12,69.88 60.17,67.81"/>
    </edge>
    <edge id=":B5_13" function="internal">
        <lane id=":B5_13_0" index="0" speed="13.89" length="15.10" shape="49.34,70.68 62.94,77.23"/>
    </edge>
    <edge id=":B5_14" function="internal">
        <lane id=":B5_14_0" index="0" speed="10.14" length="3.58" shape="49.34,70.68 52.10,72.64 52.21,72.80"/>
    </edge>
    <edge id=":B5_15" function="internal">
        <lane id=":B5_15_0" index="0" speed="3.65" length="1.44" shape="49.34,70.68 50.07,71.92"/>
    </edge>
    <edge id=":B5_18" function="internal">
        <lane id=":B5_18_0" index="0" speed="10.14" length="11.81" shape="52.21,72.80 54.08,75.49 55.26,79.21 55.66,83.82"/>
    </edge>
    <edge id=":B5_19" function="internal">
        <lane id=":B5_19_0" index="0" speed="3.65" length="3.23" shape="50.07,71.92 50.08,72.81 49.38,73.36 47.95,73.56"/>
    </edge>
    <edge id=":B6_0" function="internal">
        <lane id=":B6_0_0" index="0" speed="5.75" length="9.17" shape="74.88,67.72 73.92,65.18 72.50,63.95 70.63,64.03 68.30,65.42"/>
    </edge>
    <edge id=":B6_1" function="internal">
        <lane id=":B6_1_0" index="0" speed="13.89" length="15.10" shape="74.88,67.72 71.51,52.99"/>
    </edge>
    <edge id=":B6_2" function="internal">
        <lane id=":B6_2_0" index="0" speed="7.44" length="4.82" shape="74.88,67.72 74.45,62.91"/>
    </edge>
    <edge id=":B6_3" function="internal">
        <lane id=":B6_3_0" index="0" speed="3.65" length="1.44" shape="74.88,67.72 75.39,66.37"/>
    </edge>
    <edge id=":B6_16" function="internal">
        <lane id=":B6_16_0" index="0" speed="7.44" length="11.49" shape="74.45,62.91 75.77,59.85 78.83,58.54 83.63,58.96"/>
    </edge>
    <edge id=":B6_17" function="internal">
        <lane id=":B6_17_0" index="0" speed="3.65" length="3.23" shape="75.39,66.37 76.08,65.80 76.95,66.01 77.99,67.00"/>
    </edge>
    <edge id=":B6_4" function="internal">
        <lane id=":B6_4_0" index="0" speed="5.75" length="9.17" shape="82.92,62.08 80.22,61.84 78.50,62.58 77.76,64.30 77.99,67.00"/>
    </edge>
    <edge id=":B6_5" function="internal">
        <lane id=":B6_5_0" index="0" speed="11.78" length="15.52" shape="82.92,62.08 78.96,61.59 75.21,61.99 71.65,63.26 68.30,65.42"/>
    </edge>
    <edge id=":B6_6" function="internal">
        <lane id=":B6_6_0" index="0" speed="10.14" length="15.39" shape="82.92,62.08 78.52,60.67 75.15,58.68 72.81,56.12 71.51,52.99"/>
    </edge>
    <edge id=":B6_7" function="internal">