<?xml version="1.0" encoding="UTF-8"?>

<!-- generated on 2025-10-06 20:15:14 by Eclipse SUMO netedit Version 1.23.1
<neteditConfiguration xmlns:xsi="http://www.w3.org/2001/XMLSchema-instance" xsi:noNamespaceSchemaLocation="http://sumo.dlr.de/xsd/neteditConfiguration.xsd">

    <input>
        <additional-files value="D:\TricycleABM\maps\parking.add.xml"/>
        <sumo-net-file value="D:\TricycleABM\maps\net.net.xml"/>
    </input>

    <output>
        <output-file value="D:\TricycleABM\maps\net.net.xml"/>
    </output>

    <processing>
        <offset.disable-normalization value="true"/>
    </processing>

    <junctions>
        <no-turnarounds value="true"/>
    </junctions>

    <netedit>
        <new-network value="false"/>
    </netedit>

</neteditConfiguration>
-->

<net version="1.20" junctionCornerDetail="5" limitTurnSpeed="5.50" xmlns:xsi="http://www.w3.org/2001/XMLSchema-instance" xsi:noNamespaceSchemaLocation="http://sumo.dlr.de/xsd/net_file.xsd">

    <location netOffset="0.00,0.00" convBoundary="-637.03,-727.32,705.23,739.59" origBoundary="10000000000.00,10000000000.00,-10000000000.00,-10000000000.00" projParameter="!"/>

    <edge id=":J105_0" function="internal">
        <lane id=":J105_0_0" index="0" speed="6.24" length="9.05" shape="-178.70,299.44 -180.98,298.36 -182.98,298.33 -184.69,299.35 -186.12,301.44"/>
        <lane id=":J105_0_1" index="1" speed="7.08" length="11.98" shape="-178.70,299.44 -182.17,297.60 -185.04,297.08 -187.31,297.89 -188.99,300.03"/>
    </edge>
    <edge id=":J105_2" function="internal">
        <lane id=":J105_2_0" index="0" speed="13.89" length="15.23" shape="-178.70,299.44 -191.39,291.09"/>
        <lane id=":J105_2_1" index="1" speed="13.89" length="15.23" shape="-176.92,296.78 -189.67,288.39"/>
    </edge>
    <edge id=":J106_0" function="internal">
        <lane id=":J106_0_0" index="0" speed="6.55" length="9.43" shape="-479.56,109.69 -482.09,108.75 -484.25,108.80 -486.04,109.85 -487.46,111.90"/>
        <lane id=":J106_0_1" index="1" speed="7.99" length="14.57" shape="-478.24,106.77 -482.06,105.37 -485.35,105.52 -488.11,107.24 -490.34,110.51"/>
        <lane id=":J106_0_2" index="2" speed="8.66" length="17.31" shape="-478.24,106.77 -483.30,104.72 -487.49,104.42 -490.79,105.89 -493.22,109.11"/>
    </edge>
    <edge id=":J106_3" function="internal">
        <lane id=":J106_3_0" index="0" speed="6.38" length="9.03" shape="-477.66,92.49 -478.50,94.84 -478.35,96.86 -477.23,98.54 -475.12,99.87"/>
        <lane id=":J106_3_1" index="1" speed="7.20" length="11.83" shape="-477.66,92.49 -479.14,96.09 -479.43,99.01 -478.53,101.24 -476.44,102.79"/>
    </edge>
    <edge id=":J106_5" function="internal">
        <lane id=":J106_5_0" index="0" speed="13.89" length="21.90" shape="-477.66,92.49 -487.46,111.90"/>
        <lane id=":J106_5_1" index="1" speed="13.89" length="21.90" shape="-480.50,91.00 -490.34,110.51"/>
        <lane id=":J106_5_2" index="2" speed="13.89" length="21.90" shape="-483.33,89.51 -493.22,109.11"/>
        <lane id=":J106_5_3" index="3" speed="13.89" length="21.90" shape="-486.16,88.03 -496.10,107.72"/>
    </edge>
    <edge id=":J107_0" function="internal">
        <lane id=":J107_0_0" index="0" speed="8.99" length="16.71" shape="-606.91,299.10 -610.34,296.17 -612.14,292.78 -612.33,288.95 -610.89,284.67"/>
        <lane id=":J107_0_1" index="1" speed="7.68" length="11.93" shape="-605.18,296.41 -607.63,294.31 -608.92,291.89 -609.05,289.15 -608.03,286.10"/>
        <lane id=":J107_0_2" index="2" speed="6.09" length="7.16" shape="-603.46,293.71 -604.93,292.45 -605.70,291.00 -605.78,289.36 -605.16,287.53"/>
        <lane id=":J107_0_3" index="3" speed="3.91" length="2.39" shape="-601.73,291.02 -602.22,290.60 -602.48,290.11 -602.51,289.57 -602.30,288.96"/>
    </edge>
    <edge id=":J114_0" function="internal">
        <lane id=":J114_0_0" index="0" speed="13.89" length="0.53" shape="-511.35,89.63 -511.19,89.32"/>
        <lane id=":J114_0_1" index="1" speed="13.89" length="0.53" shape="-508.52,91.13 -508.31,90.71"/>
        <lane id=":J114_0_2" index="2" speed="13.89" length="0.53" shape="-505.70,92.63 -505.43,92.10"/>
        <lane id=":J114_0_3" index="3" speed="13.89" length="0.53" shape="-502.87,94.13 -502.55,93.50"/>
    </edge>
    <edge id=":J119_0" function="internal">
        <lane id=":J119_0_0" index="0" speed="6.73" length="8.96" shape="-381.83,-104.48 -384.33,-105.02 -386.43,-104.76 -388.12,-103.69 -389.40,-101.81"/>
        <lane id=":J119_0_1" index="1" speed="8.19" length="13.74" shape="-380.77,-107.50 -384.54,-108.30 -387.72,-107.84 -390.31,-106.13 -392.30,-103.17"/>
        <lane id=":J119_0_2" index="2" speed="8.86" length="16.26" shape="-380.77,-107.50 -385.86,-108.78 -389.97,-108.72 -393.08,-107.30 -395.19,-104.53"/>
    </edge>
    <edge id=":J119_3" function="internal">
        <lane id=":J119_3_0" index="0" speed="13.89" length="13.81" shape="-383.46,-114.14 -389.40,-101.81"/>
        <lane id=":J119_3_1" index="1" speed="13.89" length="13.81" shape="-386.32,-115.58 -392.30,-103.17"/>
        <lane id=":J119_3_2" index="2" speed="13.89" length="13.81" shape="-389.19,-117.01 -395.19,-104.53"/>
        <lane id=":J119_3_3" index="3" speed="13.89" length="13.81" shape="-392.05,-118.44 -398.09,-105.89"/>
    </edge>
    <edge id=":J120_0" function="internal">
        <lane id=":J120_0_0" index="0" speed="7.27" length="9.86" shape="-323.10,-221.02 -325.91,-221.47 -328.25,-221.10 -330.13,-219.94 -331.55,-217.96"/>
        <lane id=":J120_0_1" index="1" speed="8.05" length="12.29" shape="-323.10,-221.02 -327.26,-221.88 -330.54,-221.90 -332.92,-221.07 -334.42,-219.39"/>
    </edge>
    <edge id=":J120_2" function="internal">
        <lane id=":J120_2_0" index="0" speed="6.22" length="9.05" shape="-325.51,-231.03 -326.19,-228.59 -325.87,-226.62 -324.56,-225.13 -322.24,-224.10"/>
    </edge>
    <edge id=":J120_3" function="internal">
        <lane id=":J120_3_0" index="0" speed="13.89" length="14.17" shape="-325.51,-231.03 -331.55,-217.96"/>
        <lane id=":J120_3_1" index="1" speed="13.89" length="14.17" shape="-328.43,-232.32 -334.42,-219.39"/>
        <lane id=":J120_3_2" index="2" speed="13.89" length="14.17" shape="-331.36,-233.62 -337.28,-220.82"/>
        <lane id=":J120_3_3" index="3" speed="13.89" length="14.17" shape="-334.28,-234.92 -340.14,-222.25"/>
    </edge>
    <edge id=":J121_0" function="internal">
        <lane id=":J121_0_0" index="0" speed="6.35" length="9.04" shape="-250.53,-386.11 -252.88,-386.97 -254.89,-386.83 -256.56,-385.70 -257.89,-383.58"/>
        <lane id=":J121_0_1" index="1" speed="7.18" length="11.87" shape="-250.53,-386.11 -254.12,-387.62 -257.03,-387.92 -259.26,-387.00 -260.81,-384.88"/>
    </edge>
    <edge id=":J121_2" function="internal">
        <lane id=":J121_2_0" index="0" speed="6.83" length="9.44" shape="-252.08,-396.77 -252.71,-394.40 -252.41,-392.30 -251.17,-390.48 -249.01,-388.92"/>
    </edge>
    <edge id=":J121_3" function="internal">
        <lane id=":J121_3_0" index="0" speed="13.89" length="14.39" shape="-252.08,-396.77 -257.89,-383.58"/>
        <lane id=":J121_3_1" index="1" speed="13.89" length="14.39" shape="-255.01,-398.05 -260.81,-384.88"/>
        <lane id=":J121_3_2" index="2" speed="13.89" length="14.39" shape="-257.94,-399.34 -263.74,-386.18"/>
        <lane id=":J121_3_3" index="3" speed="13.89" length="14.39" shape="-260.87,-400.62 -266.67,-387.47"/>
    </edge>
    <edge id=":J122_0" function="internal">
        <lane id=":J122_0_0" index="0" speed="6.44" length="9.03" shape="-200.02,-501.60 -202.40,-502.34 -204.42,-502.13 -206.08,-500.97 -207.39,-498.85"/>
        <lane id=":J122_0_1" index="1" speed="7.26" length="11.78" shape="-200.02,-501.60 -203.66,-502.94 -206.60,-503.14 -208.81,-502.21 -210.32,-500.14"/>
    </edge>
    <edge id=":J122_2" function="internal">
        <lane id=":J122_2_0" index="0" speed="6.70" length="9.24" shape="-201.76,-512.08 -202.35,-509.69 -202.03,-507.63 -200.80,-505.90 -198.65,-504.49"/>
    </edge>
    <edge id=":J122_3" function="internal">
        <lane id=":J122_3_0" index="0" speed="13.89" length="14.27" shape="-201.76,-512.08 -207.39,-498.85"/>
        <lane id=":J122_3_1" index="1" speed="13.89" length="14.27" shape="-204.72,-513.30 -210.32,-500.14"/>
        <lane id=":J122_3_2" index="2" speed="13.89" length="14.27" shape="-207.68,-514.52 -213.26,-501.42"/>
        <lane id=":J122_3_3" index="3" speed="13.89" length="14.27" shape="-210.63,-515.74 -216.19,-502.70"/>
    </edge>
    <edge id=":J123_0" function="internal">
        <lane id=":J123_0_0" index="0" speed="6.92" length="9.71" shape="-157.81,-602.14 -160.57,-602.66 -162.83,-602.31 -164.61,-601.09 -165.90,-599.00"/>
        <lane id=":J123_0_1" index="1" speed="7.72" length="12.31" shape="-157.81,-602.14 -161.90,-603.10 -165.10,-603.11 -167.42,-602.14 -168.85,-600.22"/>
    </edge>
    <edge id=":J123_2" function="internal">
        <lane id=":J123_2_0" index="0" speed="6.22" length="9.05" shape="-159.84,-612.23 -160.62,-609.81 -160.38,-607.84 -159.12,-606.30 -156.84,-605.19"/>
    </edge>
    <edge id=":J123_3" function="internal">
        <lane id=":J123_3_0" index="0" speed="13.89" length="14.85" shape="-159.84,-612.23 -165.90,-599.00"/>
        <lane id=":J123_3_1" index="1" speed="13.89" length="14.85" shape="-162.72,-613.63 -168.85,-600.22"/>
        <lane id=":J123_3_2" index="2" speed="13.89" length="14.85" shape="-165.60,-615.03 -171.81,-601.44"/>
        <lane id=":J123_3_3" index="3" speed="13.89" length="14.85" shape="-168.47,-616.44 -174.77,-602.66"/>
    </edge>
    <edge id=":J134_0" function="internal">
        <lane id=":J134_0_0" index="0" speed="6.31" length="9.04" shape="581.59,-96.86 579.29,-97.87 577.28,-97.85 575.56,-96.81 574.14,-94.75"/>
        <lane id=":J134_0_1" index="1" speed="7.84" length="14.57" shape="583.28,-99.58 579.57,-101.20 576.34,-101.18 573.57,-99.50 571.27,-96.17"/>
    </edge>
    <edge id=":J134_2" function="internal">
        <lane id=":J134_2_0" index="0" speed="7.16" length="10.16" shape="583.23,-113.49 582.58,-111.12 582.93,-108.92 584.29,-106.88 586.66,-105.01"/>
        <lane id=":J134_2_1" index="1" speed="7.89" length="12.55" shape="583.23,-113.49 581.96,-109.86 581.82,-106.78 582.83,-104.26 584.97,-102.30"/>
    </edge>
    <edge id=":J134_4" function="internal">
        <lane id=":J134_4_0" index="0" speed="13.89" length="20.77" shape="583.23,-113.49 574.14,-94.75"/>
        <lane id=":J134_4_1" index="1" speed="13.89" length="20.77" shape="580.34,-114.86 571.27,-96.17"/>
        <lane id=":J134_4_2" index="2" speed="13.89" length="20.77" shape="577.44,-116.22 568.40,-97.59"/>
    </edge>
    <edge id=":J136_0" function="internal">
        <lane id=":J136_0_0" index="0" speed="6.46" length="9.03" shape="493.10,80.84 490.78,79.97 488.75,80.06 487.01,81.12 485.56,83.14"/>
        <lane id=":J136_0_1" index="1" speed="7.96" length="14.27" shape="494.64,78.03 490.96,76.66 487.75,76.81 485.01,78.48 482.72,81.67"/>
    </edge>
    <edge id=":J136_2" function="internal">
        <lane id=":J136_2_0" index="0" speed="6.70" length="9.34" shape="494.98,64.62 494.22,66.96 494.43,69.05 495.59,70.86 497.71,72.42"/>
        <lane id=":J136_2_1" index="1" speed="7.49" length="11.94" shape="494.98,64.62 493.59,68.22 493.33,71.18 494.19,73.52 496.17,75.23"/>
    </edge>
    <edge id=":J136_4" function="internal">
        <lane id=":J136_4_0" index="0" speed="13.89" length="20.72" shape="494.98,64.62 485.56,83.14"/>
        <lane id=":J136_4_1" index="1" speed="13.89" length="20.72" shape="492.11,63.19 482.72,81.67"/>
        <lane id=":J136_4_2" index="2" speed="13.89" length="20.72" shape="489.24,61.77 479.88,80.19"/>
    </edge>
    <edge id=":J15_0" function="internal">
        <lane id=":J15_0_0" index="0" speed="8.95" length="19.16" shape="-580.20,301.80 -583.33,306.09 -587.03,308.22 -591.30,308.19 -596.14,305.99"/>
        <lane id=":J15_0_1" index="1" speed="7.65" length="13.69" shape="-583.03,300.30 -585.26,303.37 -587.91,304.89 -590.96,304.87 -594.41,303.30"/>
        <lane id=":J15_0_2" index="2" speed="6.07" length="8.21" shape="-585.86,298.81 -587.20,300.65 -588.78,301.56 -590.61,301.54 -592.69,300.60"/>
        <lane id=":J15_0_3" index="3" speed="3.90" length="2.74" shape="-588.69,297.31 -589.13,297.92 -589.66,298.23 -590.27,298.22 -590.96,297.91"/>
    </edge>
    <edge id=":J150_0" function="internal">
        <lane id=":J150_0_0" index="0" speed="5.58" length="9.35" shape="301.01,575.39 303.47,578.95 303.70,581.62 301.70,583.41 297.47,584.31"/>
        <lane id=":J150_0_1" index="1" speed="3.65" length="9.35" shape="299.83,578.36 300.65,579.55 300.73,580.44 300.06,581.04 298.65,581.34"/>
    </edge>
    <edge id=":J168_0" function="internal">
        <lane id=":J168_0_0" index="0" speed="6.33" length="9.04" shape="-113.48,200.50 -111.18,201.50 -109.17,201.47 -107.45,200.42 -106.02,198.36"/>
        <lane id=":J168_0_1" index="1" speed="7.85" length="14.53" shape="-115.15,203.23 -111.45,204.83 -108.21,204.78 -105.45,203.10 -103.16,199.79"/>
    </edge>
    <edge id=":J168_2" function="internal">
        <lane id=":J168_2_0" index="0" speed="13.89" length="14.34" shape="-112.39,211.27 -106.02,198.36"/>
        <lane id=":J168_2_1" index="1" speed="13.89" length="14.34" shape="-109.51,212.65 -103.16,199.79"/>
        <lane id=":J168_2_2" index="2" speed="13.89" length="14.34" shape="-106.62,214.03 -100.29,201.21"/>
    </edge>
    <edge id=":J20_0" function="internal">
        <lane id=":J20_0_0" index="0" speed="13.89" length="8.14" shape="-189.08,476.35 -191.32,475.34 -193.17,475.36 -195.04,475.40 -197.31,474.45"/>
        <lane id=":J20_0_1" index="1" speed="13.89" length="8.14" shape="-189.08,476.35 -195.51,471.81"/>
        <lane id=":J20_0_2" index="2" speed="13.89" length="8.14" shape="-187.19,473.77 -193.70,469.17"/>
        <lane id=":J20_0_3" index="3" speed="13.89" length="8.14" shape="-185.30,471.19 -191.90,466.53"/>
    </edge>
    <edge id=":J213_0" function="internal">
        <lane id=":J213_0_0" index="0" speed="6.54" length="8.11" shape="-147.15,174.28 -147.72,176.39 -147.54,178.25 -146.61,179.88 -144.92,181.26"/>
        <lane id=":J213_0_1" index="1" speed="8.04" length="12.74" shape="-150.09,173.03 -150.99,176.33 -150.71,179.26 -149.24,181.81 -146.59,183.99"/>
    </edge>
    <edge id=":J213_2" function="internal">
        <lane id=":J213_2_0" index="0" speed="7.41" length="13.11" shape="-150.09,173.03 -152.25,177.19 -154.49,179.76 -156.82,180.74 -159.22,180.12"/>
    </edge>
    <edge id=":J213_3" function="internal">
        <lane id=":J213_3_0" index="0" speed="13.89" length="13.13" shape="-157.62,177.35 -154.61,178.53 -151.77,178.94 -148.69,179.54 -144.92,181.26"/>
        <lane id=":J213_3_1" index="1" speed="13.89" length="13.13" shape="-157.62,177.35 -146.59,183.99"/>
    </edge>
    <edge id=":J226_0" function="internal">
        <lane id=":J226_0_0" index="0" speed="6.88" length="10.10" shape="-71.28,149.87 -73.57,148.32 -74.83,146.41 -75.05,144.13 -74.25,141.50"/>
        <lane id=":J226_0_1" index="1" speed="6.10" length="7.73" shape="-71.28,149.87 -72.31,148.93 -72.67,147.45 -72.35,145.42 -71.35,142.86"/>
    </edge>
    <edge id=":J226_2" function="internal">
        <lane id=":J226_2_0" index="0" speed="13.89" length="9.29" shape="-81.16,148.43 -77.14,140.14"/>
        <lane id=":J226_2_1" index="1" speed="13.89" length="9.29" shape="-78.29,149.86 -74.25,141.50"/>
        <lane id=":J226_2_2" index="2" speed="13.89" length="9.29" shape="-75.43,151.28 -71.35,142.86"/>
    </edge>
    <edge id=":J226_5" function="internal">
        <lane id=":J226_5_0" index="0" speed="6.09" length="7.73" shape="-75.43,151.28 -74.03,148.91 -72.64,147.40 -71.25,146.76 -69.87,147.00"/>
    </edge>
    <edge id=":J232_0" function="internal">
        <lane id=":J232_0_0" index="0" speed="13.89" length="11.64" shape="-237.70,-169.74 -240.29,-171.74 -242.13,-173.03 -244.08,-174.15 -246.98,-175.66"/>
        <lane id=":J232_0_1" index="1" speed="13.89" length="11.64" shape="-235.73,-172.26 -238.46,-174.37 -240.41,-175.73 -242.46,-176.91 -245.52,-178.50"/>
        <lane id=":J232_0_2" index="2" speed="13.89" length="11.64" shape="-233.76,-174.79 -236.64,-177.00 -238.68,-178.43 -240.84,-179.68 -244.06,-181.35"/>
    </edge>
    <edge id=":J232_3" function="internal">
        <lane id=":J232_3_0" index="0" speed="6.66" length="9.03" shape="-244.60,-167.98 -243.89,-170.44 -244.05,-172.54 -245.08,-174.28 -246.98,-175.66"/>
    </edge>
    <edge id=":J234_0" function="internal">
        <lane id=":J234_0_0" index="0" speed="13.89" length="14.82" shape="-217.68,-154.79 -221.47,-157.21 -223.98,-158.99 -226.41,-160.89 -229.94,-163.69"/>
        <lane id=":J234_0_1" index="1" speed="13.89" length="14.82" shape="-215.99,-157.50 -219.69,-159.88 -222.15,-161.62 -224.52,-163.48 -227.97,-166.21"/>
        <lane id=":J234_0_2" index="2" speed="13.89" length="14.82" shape="-214.29,-160.22 -217.91,-162.54 -220.31,-164.24 -222.63,-166.06 -226.00,-168.73"/>
    </edge>
    <edge id=":J234_3" function="internal">
        <lane id=":J234_3_0" index="0" speed="7.38" length="10.30" shape="-214.29,-160.22 -216.35,-161.96 -217.49,-164.03 -217.71,-166.43 -217.01,-169.17"/>
    </edge>
    <edge id=":J234_4" function="internal">
        <lane id=":J234_4_0" index="0" speed="7.88" length="10.96" shape="-226.74,-154.09 -226.10,-156.70 -226.41,-159.16 -227.70,-161.49 -229.94,-163.69"/>
        <lane id=":J234_4_1" index="1" speed="9.18" length="15.19" shape="-223.79,-152.85 -222.85,-156.53 -223.23,-159.99 -224.94,-163.21 -227.97,-166.21"/>
    </edge>
    <edge id=":J234_6" function="internal">
        <lane id=":J234_6_0" index="0" speed="13.89" length="17.84" shape="-223.79,-152.85 -222.20,-157.90 -221.83,-161.58 -221.49,-165.27 -219.98,-170.36"/>
        <lane id=":J234_6_1" index="1" speed="13.89" length="17.84" shape="-223.79,-152.85 -217.01,-169.17"/>
    </edge>
    <edge id=":J235_0" function="internal">
        <lane id=":J235_0_0" index="0" speed="6.10" length="9.06" shape="-116.20,-90.75 -118.50,-91.88 -120.47,-91.89 -122.10,-90.80 -123.40,-88.59"/>
    </edge>
    <edge id=":J235_1" function="internal">
        <lane id=":J235_1_0" index="0" speed="13.89" length="19.65" shape="-116.20,-90.75 -132.42,-101.62"/>
        <lane id=":J235_1_1" index="1" speed="13.89" length="19.65" shape="-114.40,-93.39 -130.72,-104.33"/>
        <lane id=":J235_1_2" index="2" speed="13.89" length="19.65" shape="-112.59,-96.04 -129.03,-107.05"/>
    </edge>
    <edge id=":J235_4" function="internal">
        <lane id=":J235_4_0" index="0" speed="13.89" length="19.94" shape="-115.89,-107.13 -123.40,-88.59"/>
        <lane id=":J235_4_1" index="1" speed="13.89" length="19.94" shape="-118.87,-108.28 -126.36,-89.80"/>
        <lane id=":J235_4_2" index="2" speed="13.89" length="19.94" shape="-121.85,-109.44 -129.32,-91.02"/>
    </edge>
    <edge id=":J235_7" function="internal">
        <lane id=":J235_7_0" index="0" speed="6.99" length="4.31" shape="-121.85,-109.44 -123.65,-105.91 -123.90,-105.67"/>
        <lane id=":J235_7_1" index="1" speed="6.14" length="4.53" shape="-121.85,-109.44 -123.11,-107.22 -124.72,-106.08"/>
    </edge>
    <edge id=":J235_9" function="internal">
        <lane id=":J235_9_0" index="0" speed="6.99" length="7.78" shape="-123.90,-105.67 -125.73,-103.88 -128.09,-103.36 -130.72,-104.33"/>
        <lane id=":J235_9_1" index="0" speed="6.14" length="4.53" shape="-124.72,-106.08 -126.69,-106.02 -129.03,-107.05"/>
    </edge>
    <edge id=":J238_0" function="internal">
        <lane id=":J238_0_0" index="0" speed="13.89" length="17.36" shape="8.10,-12.09 -6.55,-21.10"/>
        <lane id=":J238_0_1" index="1" speed="13.89" length="17.36" shape="9.88,-14.75 -4.91,-23.85"/>
        <lane id=":J238_0_2" index="2" speed="13.89" length="17.36" shape="11.65,-17.41 -3.27,-26.60"/>
    </edge>
    <edge id=":J238_3" function="internal">
        <lane id=":J238_3_0" index="0" speed="7.03" length="4.82" shape="11.65,-17.41 9.52,-19.24 8.50,-20.97"/>
    </edge>
    <edge id=":J238_7" function="internal">
        <lane id=":J238_7_0" index="0" speed="7.03" length="4.91" shape="8.50,-20.97 8.35,-21.23 8.13,-23.39 8.87,-25.71"/>
    </edge>
    <edge id=":J238_4" function="internal">
        <lane id=":J238_4_0" index="0" speed="6.70" length="9.17" shape="-4.74,-13.15 -3.84,-15.62 -3.84,-17.77 -4.75,-19.60 -6.55,-21.10"/>
        <lane id=":J238_4_1" index="1" speed="8.16" length="14.09" shape="-1.89,-11.69 -0.55,-15.43 -0.61,-18.70 -2.06,-21.50 -4.91,-23.85"/>
    </edge>
    <edge id=":J238_6" function="internal">
        <lane id=":J238_6_0" index="0" speed="13.89" length="17.38" shape="0.96,-10.23 8.87,-25.71"/>
    </edge>
    <edge id=":J284_0" function="internal">
        <lane id=":J284_0_0" index="0" speed="13.89" length="17.23" shape="-63.07,-54.81 -77.60,-64.43"/>
        <lane id=":J284_0_1" index="1" speed="13.89" length="17.23" shape="-61.43,-57.56 -75.79,-67.08"/>
        <lane id=":J284_0_2" index="2" speed="13.89" length="17.23" shape="-59.79,-60.31 -73.99,-69.72"/>
    </edge>
    <edge id=":J284_3" function="internal">
        <lane id=":J284_3_0" index="0" speed="8.46" length="14.72" shape="-59.79,-60.31 -63.95,-63.22 -66.56,-66.08 -67.63,-68.87 -67.14,-71.61"/>
        <lane id=":J284_3_1" index="1" speed="7.73" length="12.12" shape="-59.79,-60.31 -62.73,-62.52 -64.45,-64.91 -64.96,-67.50 -64.24,-70.26"/>
        <lane id=":J284_3_2" index="2" speed="6.98" length="9.72" shape="-59.79,-60.31 -61.52,-61.82 -62.35,-63.75 -62.29,-66.12 -61.34,-68.92"/>
    </edge>
    <edge id=":J287_0" function="internal">
        <lane id=":J287_0_0" index="0" speed="8.38" length="13.52" shape="13.16,-215.86 11.31,-217.94 10.60,-220.70 11.02,-224.15 12.58,-228.28"/>
    </edge>
    <edge id=":J287_1" function="internal">
        <lane id=":J287_1_0" index="0" speed="6.23" length="9.05" shape="-0.59,-228.95 1.70,-227.88 3.70,-227.87 5.39,-228.91 6.79,-231.02"/>
    </edge>
    <edge id=":J287_2" function="internal">
        <lane id=":J287_2_0" index="0" speed="13.89" length="15.87" shape="0.04,-216.63 6.79,-231.02"/>
        <lane id=":J287_2_1" index="1" speed="13.89" length="15.87" shape="2.94,-215.28 9.68,-229.65"/>
        <lane id=":J287_2_2" index="2" speed="13.89" length="15.87" shape="5.85,-213.94 12.58,-228.28"/>
    </edge>
    <edge id=":J288_0" function="internal">
        <lane id=":J288_0_0" index="0" speed="6.10" length="9.06" shape="53.15,-342.88 55.45,-341.74 57.42,-341.70 59.06,-342.79 60.38,-344.98"/>
    </edge>
    <edge id=":J288_1" function="internal">
        <lane id=":J288_1_0" index="0" speed="7.28" length="10.12" shape="54.50,-331.62 55.16,-333.98 54.85,-336.20 53.58,-338.29 51.33,-340.25"/>
    </edge>
    <edge id=":J288_2" function="internal">
        <lane id=":J288_2_0" index="0" speed="13.89" length="14.74" shape="54.50,-331.62 60.38,-344.98"/>
        <lane id=":J288_2_1" index="1" speed="13.89" length="14.74" shape="57.39,-330.25 63.33,-343.74"/>
        <lane id=":J288_2_2" index="2" speed="13.89" length="14.74" shape="60.28,-328.88 66.28,-342.50"/>
    </edge>
    <edge id=":J290_0" function="internal">
        <lane id=":J290_0_0" index="0" speed="13.89" length="9.52" shape="36.89,-481.43 32.84,-472.73"/>
        <lane id=":J290_0_1" index="1" speed="13.89" length="9.52" shape="33.97,-482.74 29.95,-474.11"/>
        <lane id=":J290_0_2" index="2" speed="13.89" length="9.52" shape="31.05,-484.06 27.07,-475.50"/>
    </edge>
    <edge id=":J290_3" function="internal">
        <lane id=":J290_3_0" index="0" speed="6.00" length="7.99" shape="31.05,-484.06 29.70,-481.60 28.30,-480.08 26.85,-479.51 25.34,-479.88"/>
    </edge>
    <edge id=":J290_4" function="internal">
        <lane id=":J290_4_0" index="0" speed="7.03" length="10.24" shape="26.89,-482.68 29.21,-480.97 30.49,-478.97 30.74,-476.69 29.95,-474.11"/>
        <lane id=":J290_4_1" index="1" speed="6.26" length="7.91" shape="26.89,-482.68 27.97,-481.64 28.36,-480.09 28.06,-478.05 27.07,-475.50"/>
    </edge>
    <edge id=":J291_0" function="internal">
        <lane id=":J291_0_0" index="0" speed="6.04" length="9.07" shape="-4.99,-379.30 -7.30,-380.45 -9.25,-380.47 -10.86,-379.35 -12.11,-377.09"/>
    </edge>
    <edge id=":J291_1" function="internal">
        <lane id=":J291_1_0" index="0" speed="13.89" length="18.95" shape="-4.99,-379.30 -20.69,-389.92"/>
    </edge>
    <edge id=":J291_2" function="internal">
        <lane id=":J291_2_0" index="0" speed="7.72" length="11.54" shape="-5.81,-392.04 -6.76,-389.08 -6.64,-386.40 -5.44,-384.02 -3.17,-381.93"/>
    </edge>
    <edge id=":J291_3" function="internal">
        <lane id=":J291_3_0" index="0" speed="13.89" length="16.48" shape="-5.81,-392.04 -12.11,-377.09"/>
        <lane id=":J291_3_1" index="1" speed="13.89" length="16.48" shape="-8.70,-393.42 -15.10,-378.23"/>
        <lane id=":J291_3_2" index="2" speed="13.89" length="16.48" shape="-11.59,-394.80 -18.09,-379.36"/>
    </edge>
    <edge id=":J291_6" function="internal">
        <lane id=":J291_6_0" index="0" speed="7.12" length="11.93" shape="-11.59,-394.80 -13.61,-391.45 -15.81,-389.52 -18.17,-389.01 -20.69,-389.92"/>
    </edge>
    <edge id=":J291_7" function="internal">
        <lane id=":J291_7_0" index="0" speed="13.89" length="19.11" shape="-19.00,-392.64 -3.17,-381.93"/>
    </edge>
    <edge id=":J291_8" function="internal">
        <lane id=":J291_8_0" index="0" speed="8.67" length="14.34" shape="-19.00,-392.64 -17.14,-390.69 -16.36,-387.82 -16.68,-384.05 -18.09,-379.36"/>
    </edge>
    <edge id=":J293_0" function="internal">
        <lane id=":J293_0_0" index="0" speed="7.43" length="10.07" shape="-52.49,-270.76 -53.24,-267.88 -53.16,-265.42 -52.24,-263.37 -50.49,-261.74"/>
    </edge>
    <edge id=":J293_1" function="internal">
        <lane id=":J293_1_0" index="0" speed="13.89" length="11.76" shape="-52.49,-270.76 -56.70,-259.75"/>
        <lane id=":J293_1_1" index="1" speed="13.89" length="11.76" shape="-55.48,-271.89 -59.69,-260.91"/>
        <lane id=":J293_1_2" index="2" speed="13.89" length="11.76" shape="-58.47,-273.03 -62.67,-262.07"/>
    </edge>
    <edge id=":J293_4" function="internal">
        <lane id=":J293_4_0" index="0" speed="13.89" length="16.86" shape="-64.68,-270.85 -50.49,-261.74"/>
    </edge>
    <edge id=":J293_5" function="internal">
        <lane id=":J293_5_0" index="0" speed="7.94" length="12.22" shape="-64.68,-270.85 -61.67,-268.63 -59.83,-266.24 -59.17,-263.67 -59.69,-260.91"/>
        <lane id=":J293_5_1" index="1" speed="7.21" length="9.91" shape="-64.68,-270.85 -62.90,-269.32 -61.98,-267.35 -61.90,-264.93 -62.67,-262.07"/>
    </edge>
    <edge id=":J294_0" function="internal">
        <lane id=":J294_0_0" index="0" speed="6.13" length="9.06" shape="-162.39,-329.44 -160.11,-328.29 -158.13,-328.24 -156.46,-329.29 -155.10,-331.45"/>
    </edge>
    <edge id=":J294_1" function="internal">
        <lane id=":J294_1_0" index="0" speed="13.89" length="15.01" shape="-162.39,-329.44 -149.92,-321.08"/>
    </edge>
    <edge id=":J294_2" function="internal">
        <lane id=":J294_2_0" index="0" speed="13.89" length="12.63" shape="-160.12,-319.80 -155.10,-331.45"/>
        <lane id=":J294_2_1" index="1" speed="13.89" length="12.63" shape="-157.15,-318.61 -152.18,-330.15"/>
    </edge>
    <edge id=":J294_4" function="internal">
        <lane id=":J294_4_0" index="0" speed="6.20" length="9.05" shape="-157.15,-318.61 -155.88,-320.81 -154.25,-321.95 -152.27,-322.04 -149.92,-321.08"/>
    </edge>
    <edge id=":J295_0" function="internal">
        <lane id=":J295_0_0" index="0" speed="13.89" length="15.55" shape="-97.84,-437.91 -110.99,-446.22"/>
    </edge>
    <edge id=":J295_1" function="internal">
        <lane id=":J295_1_0" index="0" speed="8.27" length="13.25" shape="-97.84,-437.91 -99.76,-439.82 -100.61,-442.47 -100.39,-445.88 -99.09,-450.03"/>
    </edge>
    <edge id=":J295_2" function="internal">
        <lane id=":J295_2_0" index="0" speed="6.15" length="9.06" shape="-109.27,-448.92 -106.95,-447.88 -104.97,-447.91 -103.34,-449.03 -102.05,-451.23"/>
    </edge>
    <edge id=":J295_3" function="internal">
        <lane id=":J295_3_0" index="0" speed="13.89" length="15.52" shape="-109.27,-448.92 -96.15,-440.63"/>
    </edge>
    <edge id=":J295_4" function="internal">
        <lane id=":J295_4_0" index="0" speed="7.43" length="10.73" shape="-108.10,-436.97 -107.31,-439.71 -107.53,-442.17 -108.76,-444.34 -110.99,-446.22"/>
    </edge>
    <edge id=":J295_5" function="internal">
        <lane id=":J295_5_0" index="0" speed="13.89" length="15.55" shape="-108.10,-436.97 -102.05,-451.23"/>
        <lane id=":J295_5_1" index="1" speed="13.89" length="15.55" shape="-105.17,-435.67 -99.09,-450.03"/>
    </edge>
    <edge id=":J295_7" function="internal">
        <lane id=":J295_7_0" index="0" speed="7.07" length="11.99" shape="-105.17,-435.67 -103.23,-439.08 -101.07,-441.05 -98.72,-441.57 -96.15,-440.63"/>
    </edge>
    <edge id=":J296_0" function="internal">
        <lane id=":J296_0_0" index="0" speed="6.50" length="7.98" shape="-63.49,-529.07 -64.61,-530.12 -65.10,-531.68 -64.97,-533.77 -64.21,-536.38"/>
    </edge>
    <edge id=":J296_1" function="internal">
        <lane id=":J296_1_0" index="0" speed="13.89" length="9.37" shape="-70.59,-528.81 -67.21,-537.50"/>
        <lane id=":J296_1_1" index="1" speed="13.89" length="9.37" shape="-67.63,-527.60 -64.21,-536.38"/>
    </edge>
    <edge id=":J296_3" function="internal">
        <lane id=":J296_3_0" index="0" speed="5.97" length="8.11" shape="-67.63,-527.60 -66.35,-530.14 -64.98,-531.69 -63.51,-532.27 -61.94,-531.87"/>
    </edge>
    <edge id=":J299_0" function="internal">
        <lane id=":J299_0_0" index="0" speed="6.50" length="9.03" shape="-64.34,-560.41 -62.00,-559.59 -59.96,-559.71 -58.23,-560.78 -56.79,-562.80"/>
    </edge>