<?xml version="1.0" encoding="UTF-8"?>

<!-- generated on 2025-10-01 22:02:06 by Eclipse SUMO netedit Version 1.23.1
<neteditConfiguration xmlns:xsi="http://www.w3.org/2001/XMLSchema-instance" xsi:noNamespaceSchemaLocation="http://sumo.dlr.de/xsd/neteditConfiguration.xsd">

    <input>
        <sumo-net-file value="D:\TricycleABM\maps\net.net.xml"/>
    </input>

    <output>
        <output-file value="D:\TricycleABM\maps\net.net.xml"/>
    </output>

    <processing>
        <geometry.min-radius.fix.railways value="false"/>
        <geometry.avoid-overlap value="false"/>
        <geometry.max-grade.fix value="false"/>
        <offset.disable-normalization value="true"/>
        <lefthand value="0"/>
    </processing>

    <junctions>
        <no-turnarounds value="true"/>
        <junctions.corner-detail value="5"/>
        <junctions.limit-turn-speed value="5.50"/>
        <rectangular-lane-cut value="0"/>
    </junctions>

    <pedestrian>
        <walkingareas value="0"/>
    </pedestrian>

</neteditConfiguration>
-->

<net version="1.20" junctionCornerDetail="5" limitTurnSpeed="5.50" avoidOverlap="0" xmlns:xsi="http://www.w3.org/2001/XMLSchema-instance" xsi:noNamespaceSchemaLocation="http://sumo.dlr.de/xsd/net_file.xsd">

    <location netOffset="0.00,0.00" convBoundary="282069.61,1608213.57,284570.94,1613232.67" origBoundary="120.974688,14.538380,121.000730,14.654649" projParameter="+proj=utm +zone=51 +ellps=WGS84 +datum=WGS84 +units=m +no_defs"/>

    <type id="highway.footway" priority="1" numLanes="1" speed="2.78" allow="pedestrian" oneway="1" width="2.00"/>
    <type id="highway.primary" priority="12" numLanes="2" speed="27.78" disallow="tram rail_urban rail rail_electric rail_fast ship container cable_car subway aircraft wheelchair scooter drone" oneway="0"/>
    <type id="highway.primary_link" priority="7" numLanes="1" speed="22.22" disallow="tram rail_urban rail rail_electric rail_fast ship container cable_car subway aircraft wheelchair scooter drone" oneway="0"/>
    <type id="highway.residential" priority="3" numLanes="1" speed="13.89" disallow="tram rail_urban rail rail_electric rail_fast ship container cable_car subway aircraft wheelchair scooter drone" oneway="0"/>
    <type id="highway.secondary" priority="11" numLanes="1" speed="27.78" disallow="tram rail_urban rail rail_electric rail_fast ship container cable_car subway aircraft wheelchair scooter drone" oneway="0"/>
    <type id="highway.secondary_link" priority="6" numLanes="1" speed="22.22" disallow="tram rail_urban rail rail_electric rail_fast ship container cable_car subway aircraft wheelchair scooter drone" oneway="0"/>
    <type id="highway.tertiary" priority="10" numLanes="1" speed="22.22" disallow="tram rail_urban rail rail_electric rail_fast ship container cable_car subway aircraft wheelchair scooter drone" oneway="0"/>
    <type id="highway.trunk" priority="13" numLanes="2" speed="27.78" disallow="pedestrian bicycle tram rail_urban rail rail_electric rail_fast ship container cable_car subway aircraft wheelchair scooter drone" oneway="0"/>
    <type id="highway.unclassified" priority="4" numLanes="1" speed="13.89" disallow="tram rail_urban rail rail_electric rail_fast ship container cable_car subway aircraft wheelchair scooter drone" oneway="0"/>

    <edge id=":1020278300_0" function="internal">
        <lane id=":1020278300_0_0" index="0" disallow="pedestrian tram rail_urban rail rail_electric rail_fast ship container cable_car subway aircraft wheelchair scooter drone" speed="6.40" length="9.12" shape="282266.46,1612780.30 282264.09,1612779.39 282262.04,1612779.48 282260.31,1612780.55 282258.90,1612782.60"/>
    </edge>
    <edge id=":1020278300_1" function="internal">
        <lane id=":1020278300_1_0" index="0" disallow="pedestrian tram rail_urban rail rail_electric rail_fast ship container cable_car subway aircraft wheelchair scooter drone" speed="11.11" length="13.23" width="3.00" shape="282266.46,1612780.30 282254.89,1612773.88"/>
        <lane id=":1020278300_1_1" index="1" disallow="pedestrian tram rail_urban rail rail_electric rail_fast ship container cable_car subway aircraft wheelchair scooter drone" speed="11.11" length="13.23" width="3.00" shape="282267.91,1612777.68 282256.35,1612771.26"/>
    </edge>
    <edge id=":1020278300_3" function="internal">
        <lane id=":1020278300_3_0" index="0" disallow="pedestrian tram rail_urban rail rail_electric rail_fast ship container cable_car subway aircraft wheelchair scooter drone" speed="6.88" length="9.81" width="3.00" shape="282267.90,1612764.24 282267.13,1612766.69 282267.36,1612768.87 282268.60,1612770.79 282270.83,1612772.43"/>
    </edge>
    <edge id=":1020278300_4" function="internal">
        <lane id=":1020278300_4_0" index="0" disallow="pedestrian tram rail_urban rail rail_electric rail_fast ship container cable_car subway aircraft wheelchair scooter drone" speed="13.89" length="20.45" shape="282267.90,1612764.24 282258.90,1612782.60"/>
        <lane id=":1020278300_4_1" index="1" disallow="pedestrian tram rail_urban rail rail_electric rail_fast ship container cable_car subway aircraft wheelchair scooter drone" speed="13.89" length="20.45" shape="282265.02,1612762.83 282256.02,1612781.20"/>
    </edge>
    <edge id=":1020278300_6" function="internal">
        <lane id=":1020278300_6_0" index="0" disallow="pedestrian tram rail_urban rail rail_electric rail_fast ship container cable_car subway aircraft wheelchair scooter drone" speed="7.57" length="13.09" width="3.00" shape="282265.02,1612762.83 282262.57,1612767.26 282260.30,1612770.14 282258.23,1612771.48 282256.35,1612771.26"/>
    </edge>
    <edge id=":1020278300_7" function="internal">
        <lane id=":1020278300_7_0" index="0" disallow="pedestrian tram rail_urban rail rail_electric rail_fast ship container cable_car subway aircraft wheelchair scooter drone" speed="11.11" length="13.23" width="3.00" shape="282259.26,1612766.01 282270.83,1612772.43"/>
        <lane id=":1020278300_7_1" index="1" disallow="pedestrian tram rail_urban rail rail_electric rail_fast ship container cable_car subway aircraft wheelchair scooter drone" speed="11.11" length="13.23" width="3.00" shape="282257.80,1612768.64 282269.37,1612775.06"/>
    </edge>
    <edge id=":1020278300_9" function="internal">
        <lane id=":1020278300_9_0" index="0" disallow="pedestrian tram rail_urban rail rail_electric rail_fast ship container cable_car subway aircraft wheelchair scooter drone" speed="7.95" length="1.67" shape="282257.80,1612768.64 282258.83,1612769.95"/>
    </edge>
    <edge id=":1020278300_10" function="internal">
        <lane id=":1020278300_10_0" index="0" disallow="pedestrian tram rail_urban rail rail_electric rail_fast ship container cable_car subway aircraft wheelchair scooter drone" speed="7.95" length="11.86" shape="282258.83,1612769.95 282258.98,1612770.14 282259.08,1612772.73 282258.09,1612776.42 282256.02,1612781.20"/>
    </edge>
    <edge id=":1020278319_0" function="internal">
        <lane id=":1020278319_0_0" index="0" disallow="pedestrian tram rail_urban rail rail_electric rail_fast ship container cable_car subway aircraft wheelchair scooter drone" speed="6.57" length="8.90" shape="282216.25,1612869.59 282215.45,1612871.97 282215.54,1612874.03 282216.51,1612875.77 282218.37,1612877.19"/>
        <lane id=":1020278319_0_1" index="1" disallow="pedestrian tram rail_urban rail rail_electric rail_fast ship container cable_car subway aircraft wheelchair scooter drone" speed="8.06" length="13.89" shape="282213.38,1612868.18 282212.16,1612871.85 282212.33,1612875.04 282213.89,1612877.76 282216.83,1612880.00"/>
    </edge>
    <edge id=":1020278319_2" function="internal">
        <lane id=":1020278319_2_0" index="0" disallow="pedestrian tram rail_urban rail rail_electric rail_fast ship container cable_car subway aircraft wheelchair scooter drone" speed="11.11" length="12.05" shape="282207.81,1612871.39 282218.37,1612877.19"/>
        <lane id=":1020278319_2_1" index="1" disallow="pedestrian tram rail_urban rail rail_electric rail_fast ship container cable_car subway aircraft wheelchair scooter drone" speed="11.11" length="12.05" shape="282206.27,1612874.20 282216.83,1612880.00"/>
        <lane id=":1020278319_2_2" index="2" disallow="pedestrian tram rail_urban rail rail_electric rail_fast ship container cable_car subway aircraft wheelchair scooter drone" speed="11.11" length="12.05" shape="282204.73,1612877.00 282215.29,1612882.80"/>
    </edge>
    <edge id=":1020278448_0" function="internal">
        <lane id=":1020278448_0_0" index="0" disallow="pedestrian tram rail_urban rail rail_electric rail_fast ship container cable_car subway aircraft wheelchair scooter drone" speed="6.15" length="7.79" shape="282122.39,1612819.73 282121.85,1612821.51 282122.14,1612823.16 282123.26,1612824.66 282125.20,1612826.03"/>
    </edge>
    <edge id=":1020278448_1" function="internal">
        <lane id=":1020278448_1_0" index="0" disallow="pedestrian tram rail_urban rail rail_electric rail_fast ship container cable_car subway aircraft wheelchair scooter drone" speed="6.36" length="7.82" shape="282112.81,1612820.31 282115.02,1612820.85 282116.88,1612820.69 282118.38,1612819.83 282119.54,1612818.27"/>
    </edge>
    <edge id=":1020278448_2" function="internal">
        <lane id=":1020278448_2_0" index="0" disallow="pedestrian tram rail_urban rail rail_electric rail_fast ship container cable_car subway aircraft wheelchair scooter drone" speed="11.11" length="13.20" shape="282112.81,1612820.31 282116.60,1612821.75 282119.16,1612822.84 282121.64,1612824.09 282125.20,1612826.03"/>
        <lane id=":1020278448_2_1" index="1" disallow="pedestrian tram rail_urban rail rail_electric rail_fast ship container cable_car subway aircraft wheelchair scooter drone" speed="11.11" length="13.20" shape="282111.69,1612823.31 282115.35,1612824.70 282117.82,1612825.75 282120.22,1612826.96 282123.66,1612828.83"/>
        <lane id=":1020278448_2_2" index="2" disallow="pedestrian tram rail_urban rail rail_electric rail_fast ship container cable_car subway aircraft wheelchair scooter drone" speed="11.11" length="13.20" shape="282110.57,1612826.31 282114.10,1612827.65 282116.49,1612828.66 282118.80,1612829.83 282122.12,1612831.64"/>
    </edge>
    <edge id=":1020278495_0" function="internal">
        <lane id=":1020278495_0_0" index="0" disallow="pedestrian tram rail_urban rail rail_electric rail_fast ship container cable_car subway aircraft wheelchair scooter drone" speed="6.47" length="9.02" shape="282177.75,1612731.03 282175.41,1612730.12 282173.36,1612730.17 282171.60,1612731.16 282170.13,1612733.10"/>
    </edge>
    <edge id=":1020278495_1" function="internal">
        <lane id=":1020278495_1_0" index="0" disallow="pedestrian tram rail_urban rail rail_electric rail_fast ship container cable_car subway aircraft wheelchair scooter drone" speed="11.11" length="16.90" width="3.00" shape="282177.75,1612731.03 282162.98,1612722.84"/>
        <lane id=":1020278495_1_1" index="1" disallow="pedestrian tram rail_urban rail rail_electric rail_fast ship container cable_car subway aircraft wheelchair scooter drone" speed="11.11" length="16.90" width="3.00" shape="282179.21,1612728.41 282164.43,1612720.21"/>
    </edge>
    <edge id=":1020278495_3" function="internal">
        <lane id=":1020278495_3_0" index="0" disallow="pedestrian tram rail_urban rail rail_electric rail_fast ship container cable_car subway aircraft wheelchair scooter drone" speed="8.33" length="3.34" shape="282179.21,1612728.41 282176.64,1612726.28"/>
    </edge>
    <edge id=":1020278495_15" function="internal">
        <lane id=":1020278495_15_0" index="0" disallow="pedestrian tram rail_urban rail rail_electric rail_fast ship container cable_car subway aircraft wheelchair scooter drone" speed="8.33" length="13.19" shape="282176.64,1612726.28 282176.16,1612725.88 282174.80,1612722.64 282175.14,1612718.69 282177.17,1612714.02"/>
    </edge>
    <edge id=":1020278495_4" function="internal">
        <lane id=":1020278495_4_0" index="0" disallow="pedestrian tram rail_urban rail rail_electric rail_fast ship container cable_car subway aircraft wheelchair scooter drone" speed="6.47" length="8.99" width="3.00" shape="282179.95,1612715.61 282179.05,1612717.89 282179.11,1612719.90 282180.14,1612721.66 282182.13,1612723.16"/>
    </edge>
    <edge id=":1020278495_5" function="internal">
        <lane id=":1020278495_5_0" index="0" disallow="pedestrian tram rail_urban rail rail_electric rail_fast ship container cable_car subway aircraft wheelchair scooter drone" speed="5.56" length="20.06" shape="282179.95,1612715.61 282170.13,1612733.10"/>
    </edge>
    <edge id=":1020278495_6" function="internal">
        <lane id=":1020278495_6_0" index="0" disallow="pedestrian tram rail_urban rail rail_electric rail_fast ship container cable_car subway aircraft wheelchair scooter drone" speed="8.33" length="4.90" width="3.00" shape="282179.95,1612715.61 282176.96,1612719.49"/>
    </edge>
    <edge id=":1020278495_16" function="internal">
        <lane id=":1020278495_16_0" index="0" disallow="pedestrian tram rail_urban rail rail_electric rail_fast ship container cable_car subway aircraft wheelchair scooter drone" speed="8.33" length="13.50" width="3.00" shape="282176.96,1612719.49 282176.83,1612719.65 282173.20,1612721.77 282169.07,1612721.96 282164.43,1612720.21"/>
    </edge>
    <edge id=":1020278495_7" function="internal">
        <lane id=":1020278495_7_0" index="0" disallow="pedestrian tram rail_urban rail rail_electric rail_fast ship container cable_car subway aircraft wheelchair scooter drone" speed="6.35" length="8.51" shape="282167.33,1612714.96 282169.37,1612715.69 282171.23,1612715.51 282172.90,1612714.42 282174.39,1612712.43"/>
    </edge>
    <edge id=":1020278495_8" function="internal">
        <lane id=":1020278495_8_0" index="0" disallow="pedestrian tram rail_urban rail rail_electric rail_fast ship container cable_car subway aircraft wheelchair scooter drone" speed="11.11" length="16.91" width="3.00" shape="282167.33,1612714.96 282182.13,1612723.16"/>
        <lane id=":1020278495_8_1" index="1" disallow="pedestrian tram rail_urban rail rail_electric rail_fast ship container cable_car subway aircraft wheelchair scooter drone" speed="11.11" length="16.91" width="3.00" shape="282165.88,1612717.59 282180.67,1612725.78"/>
    </edge>
    <edge id=":1020278495_10" function="internal">
        <lane id=":1020278495_10_0" index="0" disallow="pedestrian tram rail_urban rail rail_electric rail_fast ship container cable_car subway aircraft wheelchair scooter drone" speed="8.33" length="4.22" shape="282165.88,1612717.59 282169.24,1612720.15"/>
    </edge>
    <edge id=":1020278495_17" function="internal">
        <lane id=":1020278495_17_0" index="0" disallow="pedestrian tram rail_urban rail rail_electric rail_fast ship container cable_car subway aircraft wheelchair scooter drone" speed="8.33" length="14.11" shape="282169.24,1612720.15 282169.82,1612720.59 282171.84,1612724.18 282171.95,1612728.35 282170.13,1612733.10"/>
    </edge>
    <edge id=":1020278495_11" function="internal">
        <lane id=":1020278495_11_0" index="0" disallow="pedestrian tram rail_urban rail rail_electric rail_fast ship container cable_car subway aircraft wheelchair scooter drone" speed="7.12" length="10.99" width="3.00" shape="282167.32,1612731.56 282168.05,1612729.20 282167.57,1612726.96 282165.88,1612724.84 282162.98,1612722.84"/>
    </edge>
    <edge id=":1020278495_12" function="internal">
        <lane id=":1020278495_12_0" index="0" disallow="pedestrian tram rail_urban rail rail_electric rail_fast ship container cable_car subway aircraft wheelchair scooter drone" speed="5.56" length="20.29" shape="282167.32,1612731.56 282169.75,1612726.12 282170.77,1612722.03 282171.83,1612717.92 282174.39,1612712.43"/>
        <lane id=":1020278495_12_1" index="1" disallow="pedestrian tram rail_urban rail rail_electric rail_fast ship container cable_car subway aircraft wheelchair scooter drone" speed="5.56" length="20.29" shape="282167.32,1612731.56 282177.17,1612714.02"/>
    </edge>
    <edge id=":1020278495_14" function="internal">
        <lane id=":1020278495_14_0" index="0" disallow="pedestrian tram rail_urban rail rail_electric rail_fast ship container cable_car subway aircraft wheelchair scooter drone" speed="8.33" length="5.42" width="3.00" shape="282167.32,1612731.56 282170.24,1612727.41 282170.52,1612727.20"/>
    </edge>
    <edge id=":1020278495_18" function="internal">
        <lane id=":1020278495_18_0" index="0" disallow="pedestrian tram rail_urban rail rail_electric rail_fast ship container cable_car subway aircraft wheelchair scooter drone" speed="8.33" length="11.09" width="3.00" shape="282170.52,1612727.20 282173.44,1612725.06 282176.92,1612724.52 282180.67,1612725.78"/>
    </edge>
    <edge id=":1020278518_0" function="internal">
        <lane id=":1020278518_0_0" index="0" disallow="pedestrian tram rail_urban rail rail_electric rail_fast ship container cable_car subway aircraft wheelchair scooter drone" speed="6.83" length="9.56" shape="282222.09,1612653.16 282219.71,1612652.42 282217.57,1612652.64 282215.69,1612653.82 282214.06,1612655.97"/>
    </edge>
    <edge id=":1020278518_1" function="internal">
        <lane id=":1020278518_1_0" index="0" disallow="pedestrian tram rail_urban rail rail_electric rail_fast ship container cable_car subway aircraft wheelchair scooter drone" speed="13.89" length="17.74" shape="282222.09,1612653.16 282206.26,1612645.15"/>
    </edge>
    <edge id=":1020278518_2" function="internal">
        <lane id=":1020278518_2_0" index="0" disallow="pedestrian tram rail_urban rail rail_electric rail_fast ship container cable_car subway aircraft wheelchair scooter drone" speed="6.89" length="10.43" shape="282222.09,1612653.16 282218.72,1612651.26 282216.56,1612649.42 282215.60,1612647.66 282215.86,1612645.96"/>
    </edge>
    <edge id=":1020278518_3" function="internal">
        <lane id=":1020278518_3_0" index="0" disallow="pedestrian tram rail_urban rail rail_electric rail_fast ship container cable_car subway aircraft wheelchair scooter drone" speed="5.56" length="9.72" shape="282218.70,1612647.42 282214.06,1612655.97"/>
    </edge>
    <edge id=":1020278518_4" function="internal">
        <lane id=":1020278518_4_0" index="0" disallow="pedestrian tram rail_urban rail rail_electric rail_fast ship container cable_car subway aircraft wheelchair scooter drone" speed="7.80" length="13.48" shape="282218.70,1612647.42 282217.29,1612648.52 282214.74,1612648.51 282211.07,1612647.38 282206.26,1612645.15"/>
    </edge>
    <edge id=":1020278518_5" function="internal">
        <lane id=":1020278518_5_0" index="0" disallow="pedestrian tram rail_urban rail rail_electric rail_fast ship container cable_car subway aircraft wheelchair scooter drone" speed="6.46" length="9.17" shape="282208.51,1612652.79 282209.44,1612650.44 282209.37,1612648.38 282208.32,1612646.62 282206.26,1612645.15"/>
    </edge>
    <edge id=":1020278518_6" function="internal">
        <lane id=":1020278518_6_0" index="0" disallow="pedestrian tram rail_urban rail rail_electric rail_fast ship container cable_car subway aircraft wheelchair scooter drone" speed="5.56" length="9.50" shape="282208.51,1612652.79 282213.01,1612644.50"/>
        <lane id=":1020278518_6_1" index="1" disallow="pedestrian tram rail_urban rail rail_electric rail_fast ship container cable_car subway aircraft wheelchair scooter drone" speed="5.56" length="9.50" shape="282211.29,1612654.38 282215.86,1612645.96"/>
    </edge>
    <edge id=":1020278535_0" function="internal">
        <lane id=":1020278535_0_0" index="0" disallow="pedestrian tram rail_urban rail rail_electric rail_fast ship container cable_car subway aircraft wheelchair scooter drone" speed="6.45" length="9.22" shape="282231.66,1612622.66 282230.72,1612625.03 282230.78,1612627.09 282231.86,1612628.85 282233.95,1612630.31"/>
    </edge>
    <edge id=":1020278535_1" function="internal">
        <lane id=":1020278535_1_0" index="0" disallow="pedestrian tram rail_urban rail rail_electric rail_fast ship container cable_car subway aircraft wheelchair scooter drone" speed="5.56" length="9.79" shape="282231.66,1612622.66 282226.99,1612631.27"/>
    </edge>
    <edge id=":1020278535_2" function="internal">
        <lane id=":1020278535_2_0" index="0" disallow="pedestrian tram rail_urban rail rail_electric rail_fast ship container cable_car subway aircraft wheelchair scooter drone" speed="7.01" length="9.89" shape="282217.85,1612622.64 282220.28,1612623.32 282222.46,1612623.01 282224.41,1612621.73 282226.12,1612619.47"/>
    </edge>
    <edge id=":1020278535_3" function="internal">
        <lane id=":1020278535_3_0" index="0" disallow="pedestrian tram rail_urban rail rail_electric rail_fast ship container cable_car subway aircraft wheelchair scooter drone" speed="13.89" length="17.84" shape="282217.85,1612622.64 282233.95,1612630.31"/>
    </edge>
    <edge id=":1020278535_4" function="internal">
        <lane id=":1020278535_4_0" index="0" disallow="pedestrian tram rail_urban rail rail_electric rail_fast ship container cable_car subway aircraft wheelchair scooter drone" speed="7.71" length="13.53" shape="282217.85,1612622.64 282222.54,1612625.06 282225.62,1612627.31 282227.11,1612629.38 282226.99,1612631.27"/>
    </edge>
    <edge id=":1020278535_5" function="internal">
        <lane id=":1020278535_5_0" index="0" disallow="pedestrian tram rail_urban rail rail_electric rail_fast ship container cable_car subway aircraft wheelchair scooter drone" speed="5.56" length="10.03" shape="282221.29,1612628.35 282226.12,1612619.47"/>
        <lane id=":1020278535_5_1" index="1" disallow="pedestrian tram rail_urban rail rail_electric rail_fast ship container cable_car subway aircraft wheelchair scooter drone" speed="5.56" length="10.03" shape="282224.14,1612629.81 282228.89,1612621.07"/>
    </edge>
    <edge id=":1020278535_7" function="internal">
        <lane id=":1020278535_7_0" index="0" disallow="pedestrian tram rail_urban rail rail_electric rail_fast ship container cable_car subway aircraft wheelchair scooter drone" speed="7.06" length="10.75" shape="282224.14,1612629.81 282225.43,1612628.52 282227.49,1612628.17 282230.33,1612628.77 282233.95,1612630.31"/>
    </edge>
    <edge id=":1020278556_0" function="internal">
        <lane id=":1020278556_0_0" index="0" disallow="pedestrian tram rail_urban rail rail_electric rail_fast ship container cable_car subway aircraft wheelchair scooter drone" speed="7.43" length="11.72" shape="282280.06,1612547.01 282277.59,1612546.37 282275.23,1612546.99 282272.98,1612548.86 282270.84,1612551.99"/>
    </edge>
    <edge id=":1020278556_1" function="internal">
        <lane id=":1020278556_1_0" index="0" disallow="pedestrian tram rail_urban rail rail_electric rail_fast ship container cable_car subway aircraft wheelchair scooter drone" speed="13.89" length="18.17" shape="282280.06,1612547.01 282275.10,1612544.97 282271.47,1612544.15 282267.84,1612543.32 282262.88,1612541.29"/>
    </edge>
    <edge id=":1020278556_2" function="internal">
        <lane id=":1020278556_2_0" index="0" disallow="pedestrian tram rail_urban rail rail_electric rail_fast ship container cable_car subway aircraft wheelchair scooter drone" speed="7.28" length="11.91" shape="282280.06,1612547.01 282276.78,1612544.95 282274.84,1612542.73 282274.25,1612540.36 282275.01,1612537.83"/>
    </edge>
    <edge id=":1020278556_3" function="internal">
        <lane id=":1020278556_3_0" index="0" disallow="pedestrian tram rail_urban rail rail_electric rail_fast ship container cable_car subway aircraft wheelchair scooter drone" speed="5.56" length="14.41" shape="282277.81,1612539.38 282270.84,1612551.99"/>
    </edge>
    <edge id=":1020278556_4" function="internal">
        <lane id=":1020278556_4_0" index="0" disallow="pedestrian tram rail_urban rail rail_electric rail_fast ship container cable_car subway aircraft wheelchair scooter drone" speed="8.80" length="16.87" shape="282277.81,1612539.38 282275.36,1612542.26 282272.05,1612543.54 282267.89,1612543.21 282262.88,1612541.29"/>
    </edge>
    <edge id=":1020278556_5" function="internal">
        <lane id=":1020278556_5_0" index="0" disallow="pedestrian tram rail_urban rail rail_electric rail_fast ship container cable_car subway aircraft wheelchair scooter drone" speed="6.67" length="9.24" shape="282264.32,1612538.43 282266.78,1612539.28 282268.92,1612539.21 282270.73,1612538.21 282272.21,1612536.29"/>
    </edge>
    <edge id=":1020278556_6" function="internal">
        <lane id=":1020278556_6_0" index="0" disallow="pedestrian tram rail_urban rail rail_electric rail_fast ship container cable_car subway aircraft wheelchair scooter drone" speed="8.63" length="3.89" shape="282264.32,1612538.43 282267.59,1612540.53"/>
    </edge>
    <edge id=":1020278556_10" function="internal">
        <lane id=":1020278556_10_0" index="0" disallow="pedestrian tram rail_urban rail rail_electric rail_fast ship container cable_car subway aircraft wheelchair scooter drone" speed="8.63" length="13.32" shape="282267.59,1612540.53 282268.84,1612541.34 282271.44,1612544.57 282272.10,1612548.13 282270.84,1612551.99"/>
    </edge>
    <edge id=":1020278556_7" function="internal">
        <lane id=":1020278556_7_0" index="0" disallow="pedestrian tram rail_urban rail rail_electric rail_fast ship container cable_car subway aircraft wheelchair scooter drone" speed="6.46" length="9.17" shape="282265.24,1612548.90 282266.13,1612546.53 282266.04,1612544.48 282264.96,1612542.73 282262.88,1612541.29"/>
    </edge>
    <edge id=":1020278556_8" function="internal">
        <lane id=":1020278556_8_0" index="0" disallow="pedestrian tram rail_urban rail rail_electric rail_fast ship container cable_car subway aircraft wheelchair scooter drone" speed="5.56" length="14.41" shape="282265.24,1612548.90 282272.21,1612536.29"/>
        <lane id=":1020278556_8_1" index="1" disallow="pedestrian tram rail_urban rail rail_electric rail_fast ship container cable_car subway aircraft wheelchair scooter drone" speed="5.56" length="14.41" shape="282268.04,1612550.45 282275.01,1612537.83"/>
    </edge>
    <edge id=":1020278940_0" function="internal">
        <lane id=":1020278940_0_0" index="0" disallow="pedestrian tram rail_urban rail rail_electric rail_fast ship container cable_car subway aircraft wheelchair scooter drone" speed="7.58" length="12.05" shape="282334.32,1612455.99 282330.55,1612454.56 282327.49,1612454.21 282325.13,1612454.95 282323.47,1612456.77"/>
    </edge>
    <edge id=":1020278940_1" function="internal">
        <lane id=":1020278940_1_0" index="0" disallow="pedestrian tram rail_urban rail rail_electric rail_fast ship container cable_car subway aircraft wheelchair scooter drone" speed="11.11" length="21.42" shape="282335.71,1612453.11 282329.74,1612450.69 282325.35,1612449.55 282321.08,1612448.42 282315.52,1612446.06"/>
    </edge>
    <edge id=":1020278940_2" function="internal">
        <lane id=":1020278940_2_0" index="0" disallow="pedestrian tram rail_urban rail rail_electric rail_fast ship container cable_car subway aircraft wheelchair scooter drone" speed="7.72" length="13.50" shape="282337.09,1612450.22 282332.44,1612447.72 282329.39,1612445.43 282327.92,1612443.36 282328.05,1612441.50"/>
    </edge>
    <edge id=":1020278940_3" function="internal">
        <lane id=":1020278940_3_0" index="0" disallow="pedestrian tram rail_urban rail rail_electric rail_fast ship container cable_car subway aircraft wheelchair scooter drone" speed="5.56" length="16.11" shape="282333.72,1612444.47 282331.09,1612448.40 282328.65,1612450.65 282326.18,1612452.89 282323.47,1612456.77"/>
    </edge>
    <edge id=":1020278940_4" function="internal">
        <lane id=":1020278940_4_0" index="0" disallow="pedestrian tram rail_urban rail rail_electric rail_fast ship container cable_car subway aircraft wheelchair scooter drone" speed="8.33" length="17.74" shape="282330.88,1612442.98 282328.24,1612446.39 282324.79,1612448.04 282320.56,1612447.93 282315.52,1612446.06"/>
    </edge>
    <edge id=":1020278940_5" function="internal">
        <lane id=":1020278940_5_0" index="0" disallow="pedestrian tram rail_urban rail rail_electric rail_fast ship container cable_car subway aircraft wheelchair scooter drone" speed="6.86" length="10.05" shape="282316.97,1612443.21 282319.43,1612444.00 282321.63,1612443.72 282323.55,1612442.40 282325.22,1612440.01"/>
    </edge>
    <edge id=":1020278940_6" function="internal">
        <lane id=":1020278940_6_0" index="0" disallow="pedestrian tram rail_urban rail rail_electric rail_fast ship container cable_car subway aircraft wheelchair scooter drone" speed="8.33" length="4.06" shape="282316.97,1612443.21 282320.38,1612445.42"/>
    </edge>
    <edge id=":1020278940_10" function="internal">
        <lane id=":1020278940_10_0" index="0" disallow="pedestrian tram rail_urban rail rail_electric rail_fast ship container cable_car subway aircraft wheelchair scooter drone" speed="8.33" length="13.11" shape="282320.38,1612445.42 282321.47,1612446.13 282324.06,1612449.37 282324.72,1612452.91 282323.47,1612456.77"/>
    </edge>
    <edge id=":1020278940_7" function="internal">
        <lane id=":1020278940_7_0" index="0" disallow="pedestrian tram rail_urban rail rail_electric rail_fast ship container cable_car subway aircraft wheelchair scooter drone" speed="6.47" length="9.15" shape="282317.87,1612453.67 282318.76,1612451.32 282318.67,1612449.26 282317.59,1612447.51 282315.52,1612446.06"/>
    </edge>
    <edge id=":1020278940_8" function="internal">
        <lane id=":1020278940_8_0" index="0" disallow="pedestrian tram rail_urban rail rail_electric rail_fast ship container cable_car subway aircraft wheelchair scooter drone" speed="5.56" length="15.55" shape="282317.87,1612453.67 282325.22,1612440.01"/>