<additional>
	<vType id="trike" accel="0.8" decel="4.5" sigma="0.5" length="2.5" maxSpeed="10.0" guiShape="bicycle"/>
	<vType id="fatPed" vClass="pedestrian" guiShape="pedestrian" color="yellow" width="1" length="1"/>
	<!-- StoppingPlaces -->
    <parkingArea id="hub0" lane="1065897746#0_2" startPos="5.00" endPos="14.20" roadsideCapacity="5" onRoad="1" lefthand="1"/>
    <parkingArea id="hub1" lane="156307482#0_1" startPos="5.00" endPos="46.00" roadsideCapacity="15"/>
    <parkingArea id="hub2" lane="1064076178#0_0" startPos="0.00" endPos="8.12" roadsideCapacity="5" onRoad="1" lefthand="1"/>
    <parkingArea id="hub3" lane="492215391#0_0" startPos="15.34" endPos="25.34" roadsideCapacity="5" onRoad="1" lefthand="1"/>
    <parkingArea id="hub4" lane="1072399998#2_0" startPos="32.33" endPos="42.33" roadsideCapacity="5" onRoad="1" lefthand="1"/>
    <parkingArea id="hub5" lane="314235470_0" startPos="80.73" endPos="90.73" roadsideCapacity="10" onRoad="1" lefthand="1"/>
    <parkingArea id="hub6" lane="1065897747#5_1" startPos="67.87" endPos="77.87" roadsideCapacity="5" onRoad="1" lefthand="1"/>
    <parkingArea id="hub7" lane="25656027_0" startPos="64.00" endPos="72.58" roadsideCapacity="10" onRoad="1"/>
    <parkingArea id="hub8" lane="154835590#5_1" startPos="28.17" endPos="38.17" roadsideCapacity="15" onRoad="1" lefthand="1"/>
    <parkingArea id="hub9" lane="923242317#3_2" startPos="52.76" endPos="61.02" roadsideCapacity="5" onRoad="1"/>
</additional>
