<?xml version="1.0" encoding="UTF-8"?>

<!-- generated on 2026-01-26 21:20:11 by Eclipse SUMO netedit Version 1.23.1
-->

<additional xmlns:xsi="http://www.w3.org/2001/XMLSchema-instance" xsi:noNamespaceSchemaLocation="http://sumo.dlr.de/xsd/additional_file.xsd">
    <!-- StoppingPlaces -->
    <parkingArea id="gas0" lane="E56_0" startPos="13.42" endPos="23.42" friendlyPos="1" roadsideCapacity="5" onRoad="1"/>
    <parkingArea id="gas1" lane="E28_0" startPos="49.25" endPos="59.25" friendlyPos="1" roadsideCapacity="5" onRoad="1"/>
    <parkingArea id="hub0" lane="E196_0" startPos="1.12" endPos="11.12" roadsideCapacity="5"/>
    <parkingArea id="hub1" lane="E154_0" startPos="1.48" endPos="31.48" roadsideCapacity="15"/>
    <parkingArea id="hub2" lane="E74_0" startPos="2.72" endPos="12.72" roadsideCapacity="5"/>
    <parkingArea id="hub3" lane="E97_0" startPos="15.44" endPos="25.44" friendlyPos="1" roadsideCapacity="5"/>
    <parkingArea id="hub4" lane="E106_0" startPos="503.38" endPos="513.38" friendlyPos="1" roadsideCapacity="5"/>
    <parkingArea id="hub5" lane="E41_0" startPos="63.76" endPos="83.76" friendlyPos="1" roadsideCapacity="10"/>
    <parkingArea id="hub6" lane="E57_0" startPos="35.82" endPos="45.82" friendlyPos="1" roadsideCapacity="5"/>
    <parkingArea id="hub7" lane="E162_0" startPos="70.65" endPos="80.65" friendlyPos="1" roadsideCapacity="5"/>
    <parkingArea id="hub8" lane="E23_0" startPos="47.71" endPos="67.71" friendlyPos="1" roadsideCapacity="10"/>

        <vType id="trike" vClass="motorcycle" color="blue" width="1.5" length="2.5" maxSpeed="16.67"  laneChangeModel="SL2015"
       maxSpeedLat="0.8"
       minGapLat="0.2"
       latAlignment="right"
       lcSublane="1.0"
       lcPushy="0.5"
       lcAssertive="0.3"
       lcImpatience="0.2"
       lcAccelLat="1.0"
    />
</additional>
