<?xml version="1.0" encoding="UTF-8"?>

<!-- generated on 2025-10-01 15:42:27 by Eclipse SUMO netgenerate Version 1.23.1
<netgenerateConfiguration xmlns:xsi="http://www.w3.org/2001/XMLSchema-instance" xsi:noNamespaceSchemaLocation="http://sumo.dlr.de/xsd/netgenerateConfiguration.xsd">

    <spider_network>
        <spider value="true"/>
        <spider.arm-number value="3"/>
        <spider.circle-number value="3"/>
        <spider.space-radius value="50.0"/>
    </spider_network>

    <output>
        <output-file value="D:\DLSU\new_thesis\TricycleABM\assets\net.net.xml"/>
    </output>

    <junctions>
        <junctions.join value="true"/>
    </junctions>

    <pedestrian>
        <sidewalks.guess value="true"/>
        <crossings.guess value="true"/>
        <walkingareas value="true"/>
    </pedestrian>

</netgenerateConfiguration>
-->

<net version="1.20" junctionCornerDetail="5" walkingareas="true" limitTurnSpeed="5.50" xmlns:xsi="http://www.w3.org/2001/XMLSchema-instance" xsi:noNamespaceSchemaLocation="http://sumo.dlr.de/xsd/net_file.xsd">

    <location netOffset="75.00,129.90" convBoundary="0.00,0.00,225.00,259.81" origBoundary="-75.00,-129.90,150.00,129.90" projParameter="!"/>

    <edge id=":A1_0" function="internal">
        <lane id=":A1_0_0" index="0" disallow="pedestrian" speed="7.07" length="6.51" shape="79.50,131.50 77.82,131.70 76.37,132.28 75.14,133.25 74.13,134.60"/>
    </edge>
    <edge id=":A1_1" function="internal">
        <lane id=":A1_1_0" index="0" disallow="pedestrian" speed="8.50" length="9.69" shape="79.50,131.50 77.28,131.10 74.92,130.04 72.83,128.53 71.36,126.80"/>
    </edge>
    <edge id=":A1_2" function="internal">
        <lane id=":A1_2_0" index="0" disallow="pedestrian" speed="3.65" length="4.67" shape="79.50,131.50 78.30,130.70 77.90,129.90 78.30,129.10 79.50,128.30"/>
    </edge>
    <edge id=":A1_3" function="internal">
        <lane id=":A1_3_0" index="0" disallow="pedestrian" speed="7.07" length="6.51" shape="74.13,125.20 75.14,126.56 76.37,127.53 77.82,128.11 79.50,128.30"/>
    </edge>
    <edge id=":A1_4" function="internal">
        <lane id=":A1_4_0" index="0" disallow="pedestrian" speed="8.50" length="9.69" shape="74.13,125.20 74.90,127.33 75.15,129.90 74.90,132.47 74.13,134.60"/>
    </edge>
    <edge id=":A1_5" function="internal">
        <lane id=":A1_5_0" index="0" disallow="pedestrian" speed="3.65" length="4.67" shape="74.13,125.20 74.04,126.64 73.55,127.39 72.66,127.44 71.36,126.80"/>
    </edge>
    <edge id=":A1_6" function="internal">
        <lane id=":A1_6_0" index="0" disallow="pedestrian" speed="7.07" length="6.51" shape="71.36,133.00 72.03,131.45 72.26,129.90 72.03,128.35 71.36,126.80"/>
    </edge>
    <edge id=":A1_7" function="internal">
        <lane id=":A1_7_0" index="0" disallow="pedestrian" speed="8.50" length="9.69" shape="71.36,133.00 72.83,131.28 74.92,129.77 77.28,128.71 79.50,128.30"/>
    </edge>
    <edge id=":A1_8" function="internal">
        <lane id=":A1_8_0" index="0" disallow="pedestrian" speed="3.65" length="4.67" shape="71.36,133.00 72.66,132.36 73.55,132.42 74.04,133.16 74.13,134.60"/>
    </edge>
    <edge id=":A1_c0" function="crossing" crossingEdges="A1B1 B1A1">
        <lane id=":A1_c0_0" index="0" allow="pedestrian" speed="2.78" length="6.40" width="4.00" shape="77.50,126.70 77.50,133.10" outlineShape="79.50,126.60 79.50,133.20 78.65,133.17 77.88,133.36 77.18,133.68 76.55,134.13 76.00,134.70 75.65,135.21 75.50,133.10 75.50,126.70 79.50,126.50 79.50,124.70 77.25,123.40 75.52,124.40 75.65,124.60"/>
    </edge>
    <edge id=":A1_c1" function="crossing" crossingEdges="A1B3 B3A1">
        <lane id=":A1_c1_0" index="0" allow="pedestrian" speed="2.78" length="6.40" width="4.00" shape="70.98,129.34 76.52,126.14" outlineShape="69.98,127.60 75.52,124.40 76.00,125.11 76.55,125.68 77.18,126.13 77.88,126.45 78.65,126.64 79.27,126.69 77.52,127.87 71.98,131.07 70.08,131.99 70.35,131.44 70.57,130.67 70.64,129.90 70.57,129.14 70.35,128.37"/>
    </edge>
    <edge id=":A1_c2" function="crossing" crossingEdges="A1B2 B2A1">
        <lane id=":A1_c2_0" index="0" allow="pedestrian" speed="2.78" length="6.40" width="4.00" shape="76.52,133.67 70.98,130.47" outlineShape="75.52,135.40 69.98,132.20 70.35,131.44 70.57,130.67 70.64,129.90 70.57,129.14 70.35,128.37 70.08,127.82 71.98,128.74 77.52,131.94 79.27,133.12 78.65,133.17 77.88,133.36 77.18,133.68 76.55,134.13 76.00,134.70"/>
    </edge>
    <edge id=":A1_w0" function="walkingarea">
        <lane id=":A1_w0_0" index="0" allow="pedestrian" speed="2.78" length="2.54" width="4.00" shape="75.52,135.40 77.25,136.40 79.50,135.10 79.50,133.10 78.65,133.17 77.88,133.36 77.18,133.68 76.55,134.13 76.00,134.70"/>
    </edge>
    <edge id=":A1_w1" function="walkingarea">
        <lane id=":A1_w1_0" index="0" allow="pedestrian" speed="2.78" length="2.54" width="4.00" shape="79.50,126.70 79.50,124.70 77.25,123.40 75.52,124.40 76.00,125.11 76.55,125.68 77.18,126.13 77.88,126.45 78.65,126.64"/>
    </edge>
    <edge id=":A1_w2" function="walkingarea">
        <lane id=":A1_w2_0" index="0" allow="pedestrian" speed="2.78" length="2.54" width="4.00" shape="69.98,127.60 68.25,128.60 68.25,131.20 69.98,132.20 70.35,131.44 70.57,130.67 70.64,129.90 70.57,129.14 70.35,128.37"/>
    </edge>
    <edge id=":B1_0" function="internal">
        <lane id=":B1_0_0" index="0" disallow="pedestrian" speed="13.89" length="20.04" shape="128.39,131.50 122.09,132.44 117.32,134.87 112.81,138.24 110.58,139.75"/>
    </edge>
    <edge id=":B1_1" function="internal">
        <lane id=":B1_1_0" index="0" disallow="pedestrian" speed="13.89" length="24.80" shape="128.39,131.50 103.59,131.50"/>
    </edge>
    <edge id=":B1_2" function="internal">
        <lane id=":B1_2_0" index="0" disallow="pedestrian" speed="13.89" length="4.70" shape="128.39,131.50 123.75,130.79"/>
    </edge>
    <edge id=":B1_3" function="internal">
        <lane id=":B1_3_0" index="0" disallow="pedestrian" speed="3.65" length="1.44" shape="128.39,131.50 127.19,130.70"/>
    </edge>
    <edge id=":B1_16" function="internal">
        <lane id=":B1_16_0" index="0" disallow="pedestrian" speed="13.89" length="4.01" shape="110.58,139.75 107.26,141.99"/>
    </edge>
    <edge id=":B1_17" function="internal">
        <lane id=":B1_17_0" index="0" disallow="pedestrian" speed="13.89" length="20.95" shape="123.75,130.79 121.84,130.50 116.52,127.92 111.46,124.40 105.66,120.59"/>
    </edge>
    <edge id=":B1_18" function="internal">
        <lane id=":B1_18_0" index="0" disallow="pedestrian" speed="3.65" length="3.23" shape="127.19,130.70 126.79,129.90 127.19,129.10 128.39,128.30"/>
    </edge>
    <edge id=":B1_4" function="internal">
        <lane id=":B1_4_0" index="0" disallow="pedestrian" speed="13.89" length="24.05" shape="107.26,117.81 112.81,121.56 117.32,124.93 122.09,127.37 128.39,128.30"/>
    </edge>
    <edge id=":B1_5" function="internal">
        <lane id=":B1_5_0" index="0" disallow="pedestrian" speed="9.85" length="30.88" shape="107.26,117.81 113.80,123.48 115.99,129.90 113.80,136.33 107.26,141.99"/>
    </edge>
    <edge id=":B1_6" function="internal">
        <lane id=":B1_6_0" index="0" disallow="pedestrian" speed="7.03" length="19.27" shape="107.26,117.81 110.67,121.61 110.94,126.14 108.45,129.92 103.59,131.50"/>
    </edge>
    <edge id=":B1_7" function="internal">
        <lane id=":B1_7_0" index="0" disallow="pedestrian" speed="3.65" length="4.67" shape="107.26,117.81 107.90,119.11 107.85,120.00 107.10,120.49 105.66,120.59"/>
    </edge>
    <edge id=":B1_8" function="internal">
        <lane id=":B1_8_0" index="0" disallow="pedestrian" speed="6.70" length="2.35" shape="103.59,128.30 105.93,128.11"/>
    </edge>
    <edge id=":B1_9" function="internal">
        <lane id=":B1_9_0" index="0" disallow="pedestrian" speed="13.89" length="24.80" shape="103.59,128.30 128.39,128.30"/>
    </edge>
    <edge id=":B1_10" function="internal">
        <lane id=":B1_10_0" index="0" disallow="pedestrian" speed="7.03" length="2.40" shape="103.59,128.30 105.87,129.05"/>
    </edge>
    <edge id=":B1_11" function="internal">
        <lane id=":B1_11_0" index="0" disallow="pedestrian" speed="3.65" length="1.44" shape="103.59,128.30 104.79,129.10"/>
    </edge>
    <edge id=":B1_19" function="internal">
        <lane id=":B1_19_0" index="0" disallow="pedestrian" speed="6.70" length="14.99" shape="105.93,128.11 109.51,127.82 111.83,126.37 110.54,123.96 105.66,120.59"/>
    </edge>
    <edge id=":B1_20" function="internal">
        <lane id=":B1_20_0" index="0" disallow="pedestrian" speed="7.03" length="16.87" shape="105.87,129.05 108.45,129.89 110.94,133.67 110.67,138.19 107.26,141.99"/>
    </edge>
    <edge id=":B1_21" function="internal">
        <lane id=":B1_21_0" index="0" disallow="pedestrian" speed="3.65" length="3.23" shape="104.79,129.10 105.19,129.90 104.79,130.70 103.59,131.50"/>
    </edge>
    <edge id=":B1_12" function="internal">
        <lane id=":B1_12_0" index="0" disallow="pedestrian" speed="6.70" length="17.34" shape="105.66,139.22 110.54,135.85 111.83,133.43 109.51,131.99 103.59,131.50"/>
    </edge>
    <edge id=":B1_13" function="internal">
        <lane id=":B1_13_0" index="0" disallow="pedestrian" speed="8.98" length="25.43" shape="105.66,139.22 111.71,134.56 113.73,129.90 111.71,125.24 105.66,120.59"/>
    </edge>
    <edge id=":B1_14" function="internal">
        <lane id=":B1_14_0" index="0" disallow="pedestrian" speed="13.89" length="25.65" shape="105.66,139.22 111.46,135.41 116.52,131.89 121.84,129.31 128.39,128.30"/>
    </edge>
    <edge id=":B1_15" function="internal">
        <lane id=":B1_15_0" index="0" disallow="pedestrian" speed="3.65" length="4.67" shape="105.66,139.22 107.10,139.31 107.85,139.81 107.90,140.70 107.26,141.99"/>
    </edge>
    <edge id=":B1_c0" function="crossing" crossingEdges="B1C1 C1B1">
        <lane id=":B1_c0_0" index="0" allow="pedestrian" speed="2.78" length="6.40" width="4.00" shape="126.39,126.70 126.39,133.10" outlineShape="128.39,126.60 128.39,133.20 124.39,133.41 124.39,126.40"/>
    </edge>
    <edge id=":B1_c1" function="crossing" crossingEdges="B1B3 B3B1">
        <lane id=":B1_c1_0" index="0" allow="pedestrian" speed="2.78" length="6.40" width="4.00" shape="106.59,122.97 109.79,117.43" outlineShape="104.86,121.97 108.06,116.43 108.11,116.34 108.06,116.43 111.40,118.64 111.53,118.43 108.33,123.97 105.28,124.88 105.37,124.64 105.52,123.56 105.37,122.61"/>
    </edge>
    <edge id=":B1_c2" function="crossing" crossingEdges="B1A1 A1B1">
        <lane id=":B1_c2_0" index="0" allow="pedestrian" speed="2.78" length="6.40" width="4.00" shape="105.59,133.10 105.59,126.70" outlineShape="103.59,133.20 103.59,126.60 104.35,126.41 104.96,125.66 105.37,124.64 105.41,124.39 107.59,126.70 107.59,133.10 105.41,135.41 105.37,135.16 104.96,134.15 104.35,133.40"/>
    </edge>
    <edge id=":B1_c3" function="crossing" crossingEdges="B1B2 B2B1">
        <lane id=":B1_c3_0" index="0" allow="pedestrian" speed="2.78" length="6.40" width="4.00" shape="109.79,142.38 106.59,136.84" outlineShape="108.06,143.38 104.86,137.84 105.37,137.20 105.52,136.25 105.37,135.16 105.28,134.93 108.33,135.84 111.53,141.38 111.40,141.17"/>
    </edge>
    <edge id=":B1_w0" function="walkingarea">
        <lane id=":B1_w0_0" index="0" allow="pedestrian" speed="2.78" length="14.52" width="4.00" shape="108.06,143.38 109.06,145.11 128.39,135.10 128.39,133.10 123.62,133.47 120.25,134.50 117.66,136.11 115.19,138.18 112.20,140.64"/>
    </edge>
    <edge id=":B1_w1" function="walkingarea">
        <lane id=":B1_w1_0" index="0" allow="pedestrian" speed="2.78" length="14.52" width="4.00" shape="128.39,126.70 128.39,124.70 109.06,114.70 108.06,116.43 112.20,119.17 115.19,121.62 117.66,123.70 120.25,125.31 123.62,126.34"/>
    </edge>
    <edge id=":B1_w2" function="walkingarea">
        <lane id=":B1_w2_0" index="0" allow="pedestrian" speed="2.78" length="3.24" width="4.00" shape="104.86,121.97 103.86,123.70 103.59,124.70 103.59,126.70 104.35,126.41 104.96,125.66 105.37,124.64 105.52,123.56 105.37,122.61"/>
    </edge>
    <edge id=":B1_w3" function="walkingarea">
        <lane id=":B1_w3_0" index="0" allow="pedestrian" speed="2.78" length="3.24" width="4.00" shape="103.59,133.10 103.59,135.10 103.86,136.10 104.86,137.84 105.37,137.20 105.52,136.25 105.37,135.16 104.96,134.15 104.35,133.40"/>
    </edge>
    <edge id=":B2_0" function="internal">
        <lane id=":B2_0_0" index="0" disallow="pedestrian" speed="13.89" length="24.05" shape="69.34,163.89 63.32,166.82 58.14,169.04 53.65,171.95 49.69,176.94"/>
    </edge>
    <edge id=":B2_1" function="internal">
        <lane id=":B2_1_0" index="0" disallow="pedestrian" speed="9.85" length="30.88" shape="69.34,163.89 61.16,166.72 54.51,165.40 50.04,160.30 48.40,151.80"/>
    </edge>
    <edge id=":B2_2" function="internal">
        <lane id=":B2_2_0" index="0" disallow="pedestrian" speed="7.03" length="19.27" shape="69.34,163.89 64.34,164.94 60.30,162.91 58.26,158.86 59.32,153.87"/>
    </edge>
    <edge id=":B2_3" function="internal">
        <lane id=":B2_3_0" index="0" disallow="pedestrian" speed="3.65" length="4.67" shape="69.34,163.89 67.90,163.79 67.15,163.30 67.10,162.41 67.74,161.12"/>
    </edge>
    <edge id=":B2_4" function="internal">
        <lane id=":B2_4_0" index="0" disallow="pedestrian" speed="6.70" length="2.35" shape="62.09,155.47 61.08,157.59"/>
    </edge>
    <edge id=":B2_5" function="internal">
        <lane id=":B2_5_0" index="0" disallow="pedestrian" speed="13.89" length="24.80" shape="62.09,155.47 49.69,176.94"/>
    </edge>
    <edge id=":B2_6" function="internal">
        <lane id=":B2_6_0" index="0" disallow="pedestrian" speed="7.03" length="2.40" shape="62.09,155.47 60.30,157.07"/>
    </edge>
    <edge id=":B2_7" function="internal">
        <lane id=":B2_7_0" index="0" disallow="pedestrian" speed="3.65" length="1.44" shape="62.09,155.47 60.80,156.11"/>
    </edge>
    <edge id=":B2_16" function="internal">
        <lane id=":B2_16_0" index="0" disallow="pedestrian" speed="6.70" length="14.99" shape="61.08,157.59 59.55,160.83 59.64,163.56 62.37,163.66 67.74,161.12"/>
    </edge>
    <edge id=":B2_17" function="internal">
        <lane id=":B2_17_0" index="0" disallow="pedestrian" speed="7.03" length="16.87" shape="60.30,157.07 58.29,158.88 53.77,159.14 49.99,156.65 48.40,151.80"/>
    </edge>
    <edge id=":B2_18" function="internal">
        <lane id=":B2_18_0" index="0" disallow="pedestrian" speed="3.65" length="3.23" shape="60.80,156.11 59.90,156.05 59.41,155.31 59.32,153.87"/>
    </edge>
    <edge id=":B2_8" function="internal">
        <lane id=":B2_8_0" index="0" disallow="pedestrian" speed="6.70" length="17.34" shape="51.60,151.80 52.08,157.72 53.53,160.03 55.94,158.75 59.32,153.87"/>
    </edge>
    <edge id=":B2_9" function="internal">
        <lane id=":B2_9_0" index="0" disallow="pedestrian" speed="8.98" length="25.43" shape="51.60,151.80 52.61,159.37 55.63,163.45 60.68,164.03 67.74,161.12"/>
    </edge>
    <edge id=":B2_10" function="internal">
        <lane id=":B2_10_0" index="0" disallow="pedestrian" speed="13.89" length="25.65" shape="51.60,151.80 52.00,158.73 52.52,164.87 52.10,170.77 49.69,176.94"/>
    </edge>
    <edge id=":B2_11" function="internal">
        <lane id=":B2_11_0" index="0" disallow="pedestrian" speed="3.65" length="4.67" shape="51.60,151.80 50.80,153.00 50.00,153.40 49.20,153.00 48.40,151.80"/>
    </edge>
    <edge id=":B2_12" function="internal">
        <lane id=":B2_12_0" index="0" disallow="pedestrian" speed="13.89" length="20.04" shape="46.92,175.34 49.26,169.42 49.53,164.07 48.87,158.48 48.68,155.80"/>
    </edge>
    <edge id=":B2_13" function="internal">
        <lane id=":B2_13_0" index="0" disallow="pedestrian" speed="13.89" length="24.80" shape="46.92,175.34 59.32,153.87"/>
    </edge>
    <edge id=":B2_14" function="internal">
        <lane id=":B2_14_0" index="0" disallow="pedestrian" speed="13.89" length="4.70" shape="46.92,175.34 49.85,171.68"/>
    </edge>
    <edge id=":B2_15" function="internal">
        <lane id=":B2_15_0" index="0" disallow="pedestrian" speed="3.65" length="1.44" shape="46.92,175.34 48.21,174.70"/>
    </edge>
    <edge id=":B2_19" function="internal">
        <lane id=":B2_19_0" index="0" disallow="pedestrian" speed="13.89" length="4.01" shape="48.68,155.80 48.40,151.80"/>
    </edge>
    <edge id=":B2_20" function="internal">
        <lane id=":B2_20_0" index="0" disallow="pedestrian" speed="13.89" length="20.95" shape="49.85,171.68 51.06,170.17 55.96,166.86 61.54,164.23 67.74,161.12"/>
    </edge>
    <edge id=":B2_21" function="internal">
        <lane id=":B2_21_0" index="0" disallow="pedestrian" speed="3.65" length="3.23" shape="48.21,174.70 49.10,174.76 49.60,175.50 49.69,176.94"/>
    </edge>
    <edge id=":B2_c0" function="crossing" crossingEdges="B2B1 B1B2">
        <lane id=":B2_c0_0" index="0" allow="pedestrian" speed="2.78" length="6.40" width="4.00" shape="65.21,160.73 68.41,166.27" outlineShape="66.94,159.73 70.14,165.27 66.55,167.06 66.67,167.27 63.47,161.73 64.21,158.64 64.37,158.83 65.23,159.51 66.13,159.86"/>
    </edge>
    <edge id=":B2_c1" function="crossing" crossingEdges="B2A1 A1B2">
        <lane id=":B2_c1_0" index="0" allow="pedestrian" speed="2.78" length="6.40" width="4.00" shape="56.93,154.80 62.47,158.00" outlineShape="57.93,153.07 63.47,156.27 63.56,156.32 63.47,156.27 63.35,157.07 63.70,157.97 64.37,158.83 64.57,158.99 61.47,159.73 55.93,156.53 55.02,153.48 55.26,153.58 56.34,153.73 57.30,153.58"/>
    </edge>
    <edge id=":B2_c2" function="crossing" crossingEdges="B2B3 B3B2">
        <lane id=":B2_c2_0" index="0" allow="pedestrian" speed="2.78" length="6.40" width="4.00" shape="46.80,153.80 53.20,153.80" outlineShape="46.80,151.80 53.20,151.80 53.49,152.56 54.25,153.17 55.26,153.58 55.51,153.61 53.20,155.80 46.80,155.80 47.04,155.80"/>
    </edge>
    <edge id=":B2_c3" function="crossing" crossingEdges="B2C2 C2B2">
        <lane id=":B2_c3_0" index="0" allow="pedestrian" speed="2.78" length="6.40" width="4.00" shape="52.07,176.01 46.53,172.81" outlineShape="51.07,177.74 45.53,174.54 47.27,170.93 53.34,174.43"/>
    </edge>
    <edge id=":B2_w0" function="walkingarea">
        <lane id=":B2_w0_0" index="0" allow="pedestrian" speed="2.78" length="14.52" width="4.00" shape="51.07,177.74 52.81,178.74 71.14,167.01 70.14,165.27 65.70,167.49 62.08,168.85 59.04,169.94 56.36,171.39 53.78,173.79"/>
    </edge>
    <edge id=":B2_w1" function="walkingarea">
        <lane id=":B2_w1_0" index="0" allow="pedestrian" speed="2.78" length="3.24" width="4.00" shape="66.94,159.73 65.94,158.00 65.21,157.27 63.47,156.27 63.35,157.07 63.70,157.97 64.37,158.83 65.23,159.51 66.13,159.86"/>
    </edge>
    <edge id=":B2_w2" function="walkingarea">
        <lane id=":B2_w2_0" index="0" allow="pedestrian" speed="2.78" length="3.24" width="4.00" shape="57.93,153.07 56.20,152.07 55.20,151.80 53.20,151.80 53.49,152.56 54.25,153.17 55.26,153.58 56.34,153.73 57.30,153.58"/>
    </edge>
    <edge id=":B2_w3" function="walkingarea">
        <lane id=":B2_w3_0" index="0" allow="pedestrian" speed="2.78" length="14.52" width="4.00" shape="46.80,151.80 44.80,151.80 43.80,173.54 45.53,174.54 47.60,170.22 48.39,166.79 48.30,163.74 47.74,160.57 47.10,156.75"/>
    </edge>
    <edge id=":B3_0" function="internal">
        <lane id=":B3_0_0" index="0" disallow="pedestrian" speed="13.89" length="24.05" shape="48.40,108.01 48.87,101.33 49.53,95.73 49.26,90.39 46.92,84.46"/>
    </edge>
    <edge id=":B3_1" function="internal">
        <lane id=":B3_1_0" index="0" disallow="pedestrian" speed="9.85" length="30.88" shape="48.40,108.01 50.04,99.51 54.51,94.41 61.16,93.09 69.34,95.92"/>
    </edge>
    <edge id=":B3_2" function="internal">
        <lane id=":B3_2_0" index="0" disallow="pedestrian" speed="7.03" length="19.27" shape="48.40,108.01 49.99,103.16 53.77,100.67 58.29,100.93 62.09,104.34"/>
    </edge>
    <edge id=":B3_3" function="internal">
        <lane id=":B3_3_0" index="0" disallow="pedestrian" speed="3.65" length="4.67" shape="48.40,108.01 49.20,106.81 50.00,106.41 50.80,106.81 51.60,108.01"/>
    </edge>
    <edge id=":B3_4" function="internal">
        <lane id=":B3_4_0" index="0" disallow="pedestrian" speed="6.70" length="2.35" shape="59.32,105.94 57.98,104.01"/>
    </edge>
    <edge id=":B3_5" function="internal">
        <lane id=":B3_5_0" index="0" disallow="pedestrian" speed="13.89" length="24.80" shape="59.32,105.94 46.92,84.46"/>
    </edge>
    <edge id=":B3_6" function="internal">
        <lane id=":B3_6_0" index="0" disallow="pedestrian" speed="7.03" length="2.40" shape="59.32,105.94 58.82,103.60"/>
    </edge>
    <edge id=":B3_7" function="internal">
        <lane id=":B3_7_0" index="0" disallow="pedestrian" speed="3.65" length="1.44" shape="59.32,105.94 59.41,104.50"/>
    </edge>
    <edge id=":B3_16" function="internal">
        <lane id=":B3_16_0" index="0" disallow="pedestrian" speed="6.70" length="14.99" shape="57.98,104.01 55.94,101.06 53.53,99.77 52.08,102.09 51.60,108.01"/>
    </edge>
    <edge id=":B3_17" function="internal">
        <lane id=":B3_17_0" index="0" disallow="pedestrian" speed="7.03" length="16.87" shape="58.82,103.60 58.26,100.95 60.30,96.90 64.34,94.87 69.34,95.92"/>
    </edge>
    <edge id=":B3_18" function="internal">
        <lane id=":B3_18_0" index="0" disallow="pedestrian" speed="3.65" length="3.23" shape="59.41,104.50 59.90,103.76 60.80,103.70 62.09,104.34"/>
    </edge>
    <edge id=":B3_8" function="internal">
        <lane id=":B3_8_0" index="0" disallow="pedestrian" speed="6.70" length="17.34" shape="67.74,98.69 62.37,96.15 59.64,96.25 59.55,98.98 62.09,104.34"/>
    </edge>
    <edge id=":B3_9" function="internal">
        <lane id=":B3_9_0" index="0" disallow="pedestrian" speed="8.98" length="25.43" shape="67.74,98.69 60.68,95.78 55.63,96.36 52.61,100.44 51.60,108.01"/>
    </edge>
    <edge id=":B3_10" function="internal">
        <lane id=":B3_10_0" index="0" disallow="pedestrian" speed="13.89" length="25.65" shape="67.74,98.69 61.54,95.58 55.96,92.95 51.06,89.64 46.92,84.46"/>
    </edge>
    <edge id=":B3_11" function="internal">
        <lane id=":B3_11_0" index="0" disallow="pedestrian" speed="3.65" length="4.67" shape="67.74,98.69 67.10,97.40 67.15,96.51 67.90,96.01 69.34,95.92"/>
    </edge>
    <edge id=":B3_12" function="internal">
        <lane id=":B3_12_0" index="0" disallow="pedestrian" speed="13.89" length="20.04" shape="49.69,82.86 53.65,87.85 58.14,90.76 63.32,92.99 65.73,94.16"/>
    </edge>
    <edge id=":B3_13" function="internal">
        <lane id=":B3_13_0" index="0" disallow="pedestrian" speed="13.89" length="24.80" shape="49.69,82.86 62.09,104.34"/>
    </edge>
    <edge id=":B3_14" function="internal">
        <lane id=":B3_14_0" index="0" disallow="pedestrian" speed="13.89" length="4.70" shape="49.69,82.86 51.39,87.24"/>
    </edge>
    <edge id=":B3_15" function="internal">
        <lane id=":B3_15_0" index="0" disallow="pedestrian" speed="3.65" length="1.44" shape="49.69,82.86 49.60,84.30"/>
    </edge>
    <edge id=":B3_19" function="internal">
        <lane id=":B3_19_0" index="0" disallow="pedestrian" speed="13.89" length="4.01" shape="65.73,94.16 69.34,95.92"/>
    </edge>
    <edge id=":B3_20" function="internal">
        <lane id=":B3_20_0" index="0" disallow="pedestrian" speed="13.89" length="20.95" shape="51.39,87.24 52.10,89.04 52.52,94.93 52.00,101.08 51.60,108.01"/>
    </edge>
    <edge id=":B3_21" function="internal">
        <lane id=":B3_21_0" index="0" disallow="pedestrian" speed="3.65" length="3.23" shape="49.60,84.30 49.10,85.05 48.21,85.10 46.92,84.46"/>
    </edge>
    <edge id=":B3_c0" function="crossing" crossingEdges="B3B2 B2B3">
        <lane id=":B3_c0_0" index="0" allow="pedestrian" speed="2.78" length="6.40" width="4.00" shape="53.20,106.01 46.80,106.01" outlineShape="53.20,108.01 46.80,108.01 47.04,104.01 46.80,104.01 53.20,104.01 55.51,106.20 55.26,106.23 54.25,106.64 53.49,107.25"/>
    </edge>
    <edge id=":B3_c1" function="crossing" crossingEdges="B3A1 A1B3">
        <lane id=":B3_c1_0" index="0" allow="pedestrian" speed="2.78" length="6.40" width="4.00" shape="62.47,101.81 56.93,105.01" outlineShape="63.47,103.54 57.93,106.74 57.30,106.23 56.34,106.08 55.26,106.23 55.02,106.33 55.93,103.28 61.47,100.08 64.57,100.82 64.37,100.97 63.70,101.83 63.35,102.74"/>
    </edge>
    <edge id=":B3_c2" function="crossing" crossingEdges="B3B1 B1B3">
        <lane id=":B3_c2_0" index="0" allow="pedestrian" speed="2.78" length="6.40" width="4.00" shape="68.41,93.53 65.21,99.08" outlineShape="70.14,94.53 66.94,100.08 66.13,99.95 65.23,100.30 64.37,100.97 64.21,101.17 63.47,98.08 66.67,92.53 66.55,92.75"/>
    </edge>
    <edge id=":B3_c3" function="crossing" crossingEdges="B3C3 C3B3">
        <lane id=":B3_c3_0" index="0" allow="pedestrian" speed="2.78" length="6.40" width="4.00" shape="46.53,87.00 52.07,83.80" outlineShape="45.53,85.26 51.07,82.06 53.34,85.37 47.27,88.88"/>
    </edge>
    <edge id=":B3_w0" function="walkingarea">
        <lane id=":B3_w0_0" index="0" allow="pedestrian" speed="2.78" length="14.52" width="4.00" shape="45.53,85.26 43.80,86.26 44.80,108.01 46.80,108.01 47.10,103.05 47.74,99.24 48.30,96.06 48.39,93.01 47.60,89.58"/>
    </edge>
    <edge id=":B3_w1" function="walkingarea">
        <lane id=":B3_w1_0" index="0" allow="pedestrian" speed="2.78" length="3.24" width="4.00" shape="53.20,108.01 55.20,108.01 56.20,107.74 57.93,106.74 57.30,106.23 56.34,106.08 55.26,106.23 54.25,106.64 53.49,107.25"/>
    </edge>
    <edge id=":B3_w2" function="walkingarea">
        <lane id=":B3_w2_0" index="0" allow="pedestrian" speed="2.78" length="3.24" width="4.00" shape="63.47,103.54 65.21,102.54 65.94,101.81 66.94,100.08 66.13,99.95 65.23,100.30 64.37,100.97 63.70,101.83 63.35,102.74"/>
    </edge>
    <edge id=":B3_w3" function="walkingarea">
        <lane id=":B3_w3_0" index="0" allow="pedestrian" speed="2.78" length="14.52" width="4.00" shape="70.14,94.53 71.14,92.80 52.81,81.06 51.07,82.06 53.78,86.02 56.36,88.42 59.04,89.86 62.08,90.96 65.70,92.32"/>
    </edge>
    <edge id=":C1_0" function="internal">
        <lane id=":C1_0_0" index="0" disallow="pedestrian" speed="13.89" length="20.04" shape="178.39,131.50 172.09,132.44 167.32,134.87 162.81,138.24 160.58,139.75"/>
    </edge>
    <edge id=":C1_1" function="internal">
        <lane id=":C1_1_0" index="0" disallow="pedestrian" speed="13.89" length="24.80" shape="178.39,131.50 153.59,131.50"/>
    </edge>
    <edge id=":C1_2" function="internal">
        <lane id=":C1_2_0" index="0" disallow="pedestrian" speed="13.89" length="4.70" shape="178.39,131.50 173.75,130.79"/>
    </edge>
    <edge id=":C1_3" function="internal">
        <lane id=":C1_3_0" index="0" disallow="pedestrian" speed="3.65" length="1.44" shape="178.39,131.50 177.19,130.70"/>
    </edge>
    <edge id=":C1_16" function="internal">
        <lane id=":C1_16_0" index="0" disallow="pedestrian" speed="13.89" length="4.01" shape="160.58,139.75 157.26,141.99"/>
    </edge>
    <edge id=":C1_17" function="internal">
        <lane id=":C1_17_0" index="0" disallow="pedestrian" speed="13.89" length="20.95" shape="173.75,130.79 171.84,130.50 166.52,127.92 161.46,124.40 155.66,120.59"/>
    </edge>
    <edge id=":C1_18" function="internal">
        <lane id=":C1_18_0" index="0" disallow="pedestrian" speed="3.65" length="3.23" shape="177.19,130.70 176.79,129.90 177.19,129.10 178.39,128.30"/>
    </edge>
    <edge id=":C1_4" function="internal">
        <lane id=":C1_4_0" index="0" disallow="pedestrian" speed="13.89" length="24.05" shape="157.26,117.81 162.81,121.56 167.32,124.93 172.09,127.37 178.39,128.30"/>
    </edge>
    <edge id=":C1_5" function="internal">
        <lane id=":C1_5_0" index="0" disallow="pedestrian" speed="9.85" length="30.88" shape="157.26,117.81 163.80,123.48 165.99,129.90 163.80,136.33 157.26,141.99"/>
    </edge>
    <edge id=":C1_6" function="internal">
        <lane id=":C1_6_0" index="0" disallow="pedestrian" speed="7.03" length="19.27" shape="157.26,117.81 160.67,121.61 160.94,126.14 158.45,129.92 153.59,131.50"/>
    </edge>
    <edge id=":C1_7" function="internal">
        <lane id=":C1_7_0" index="0" disallow="pedestrian" speed="3.65" length="4.67" shape="157.26,117.81 157.90,119.11 157.85,120.00 157.10,120.49 155.66,120.59"/>
    </edge>
    <edge id=":C1_8" function="internal">
        <lane id=":C1_8_0" index="0" disallow="pedestrian" speed="6.70" length="2.35" shape="153.59,128.30 155.93,128.11"/>
    </edge>
    <edge id=":C1_9" function="internal">
        <lane id=":C1_9_0" index="0" disallow="pedestrian" speed="13.89" length="24.80" shape="153.59,128.30 178.39,128.30"/>
    </edge>
    <edge id=":C1_10" function="internal">
        <lane id=":C1_10_0" index="0" disallow="pedestrian" speed="7.03" length="2.40" shape="153.59,128.30 155.87,129.05"/>
    </edge>
    <edge id=":C1_11" function="internal">
        <lane id=":C1_11_0" index="0" disallow="pedestrian" speed="3.65" length="1.44" shape="153.59,128.30 154.79,129.10"/>
    </edge>
    <edge id=":C1_19" function="internal">
        <lane id=":C1_19_0" index="0" disallow="pedestrian" speed="6.70" length="14.99" shape="155.93,128.11 159.51,127.82 161.83,126.37 160.54,123.96 155.66,120.59"/>
    </edge>
    <edge id=":C1_20" function="internal">
        <lane id=":C1_20_0" index="0" disallow="pedestrian" speed="7.03" length="16.87" shape="155.87,129.05 158.45,129.89 160.94,133.67 160.67,138.19 157.26,141.99"/>
    </edge>
    <edge id=":C1_21" function="internal">
        <lane id=":C1_21_0" index="0" disallow="pedestrian" speed="3.65" length="3.23" shape="154.79,129.10 155.19,129.90 154.79,130.70 153.59,131.50"/>
    </edge>
    <edge id=":C1_12" function="internal">