<additional>
	<vType id="trike" accel="0.8" decel="4.5" sigma="0.5" length="1" maxSpeed="10.0" guiShape="bicycle"/>
	<vType id="fatPed" vClass="pedestrian" guiShape="pedestrian" color="yellow" width="1" length="1"/>
	<!-- StoppingPlaces -->
    <parkingArea id="hub0" lane="1065897746#0_2" startPos="5.00" endPos="20.00" roadsideCapacity="5" onRoad="1" lefthand="1"/>
    <parkingArea id="hub1" lane="156307482#0_1" startPos="5.00" endPos="50.00" roadsideCapacity="15"/>
    <parkingArea id="hub2" lane="1064076178#0_0" startPos="0.00" endPos="15.00" roadsideCapacity="5" onRoad="1" lefthand="1"/>
    <parkingArea id="hub3" lane="492215391#0_0" startPos="15.34" endPos="30.34" roadsideCapacity="5" onRoad="1" lefthand="1"/>
    <parkingArea id="hub4" lane="1072399998#2_0" startPos="32.33" endPos="47.33" roadsideCapacity="5" onRoad="1" lefthand="1"/>
    <parkingArea id="hub5" lane="314235470_0" startPos="50.73" endPos="80.73" roadsideCapacity="10" onRoad="1" lefthand="1"/>
    <parkingArea id="hub6" lane="1065897747#5_1" startPos="57.87" endPos="72.87" roadsideCapacity="5" onRoad="1" lefthand="1"/>
    <parkingArea id="hub7" lane="25656027_0" startPos="34.00" endPos="64.00" roadsideCapacity="10" onRoad="1"/>
    <parkingArea id="hub8" lane="154835590#5_1" startPos="1.00" endPos="37.50" roadsideCapacity="15" onRoad="1" lefthand="1"/>
    <parkingArea id="hub9" lane="923242317#3_2" startPos="42.76" endPos="57.76" roadsideCapacity="5" onRoad="1"/>
</additional>
